 &NAM_ASSIM
   LASSIM=.TRUE.,
   LCROCO=.TRUE.,
   CASSIM_ISBA='PF   ',
   CPF_CROCUS='KLOCAL',
   NEFF_PF=1,
   NPRINTLEV=1,
   LEXTRAP_SEA=.FALSE.,
   LEXTRAP_WATER=.FALSE.,
   LEXTRAP_NATURE=.FALSE.,
   LWATERTG2=.TRUE.,
 /
 &NAM_DATA_ISBA
   XUNIF_VEGTYPE(1)=0.,
   XUNIF_VEGTYPE(2)=0.,
   XUNIF_VEGTYPE(3)=0.,
   XUNIF_VEGTYPE(4)=0.,
   XUNIF_VEGTYPE(5)=0.,
   XUNIF_VEGTYPE(6)=0.,
   XUNIF_VEGTYPE(7)=0.,
   XUNIF_VEGTYPE(8)=0.,
   XUNIF_VEGTYPE(9)=0.,
   XUNIF_VEGTYPE(10)=1.,
   XUNIF_VEGTYPE(11)=0.,
   XUNIF_VEGTYPE(12)=0.,
   XUNIF_VEGTYPE(13)=0.,
   XUNIF_VEGTYPE(14)=0.,
   XUNIF_VEGTYPE(15)=0.,
   XUNIF_VEGTYPE(16)=0.,
   XUNIF_VEGTYPE(17)=0.,
   XUNIF_VEGTYPE(18)=0.,
   XUNIF_VEGTYPE(19)=0.,
   NTIME=12,
   XUNIF_VEG(1,1)=1.,
   XUNIF_VEG(1,2)=1.,
   XUNIF_VEG(1,3)=1.,
   XUNIF_VEG(1,4)=1.,
   XUNIF_VEG(1,5)=1.,
   XUNIF_VEG(1,6)=1.,
   XUNIF_VEG(1,7)=1.,
   XUNIF_VEG(1,8)=1.,
   XUNIF_VEG(1,9)=1.,
   XUNIF_VEG(1,10)=1.,
   XUNIF_VEG(1,11)=1.,
   XUNIF_VEG(1,12)=1.,
   XUNIF_LAI(1,1)=1.,
   XUNIF_LAI(1,2)=1.,
   XUNIF_LAI(1,3)=1.,
   XUNIF_LAI(1,4)=1.,
   XUNIF_LAI(1,5)=1.,
   XUNIF_LAI(1,6)=1.,
   XUNIF_LAI(1,7)=1.,
   XUNIF_LAI(1,8)=1.,
   XUNIF_LAI(1,9)=1.,
   XUNIF_LAI(1,10)=1.,
   XUNIF_LAI(1,11)=1.,
   XUNIF_LAI(1,12)=1.,
   XUNIF_Z0(1,1)=0.005,
   XUNIF_Z0(1,2)=0.005,
   XUNIF_Z0(1,3)=0.005,
   XUNIF_Z0(1,4)=0.005,
   XUNIF_Z0(1,5)=0.005,
   XUNIF_Z0(1,6)=0.005,
   XUNIF_Z0(1,7)=0.005,
   XUNIF_Z0(1,8)=0.005,
   XUNIF_Z0(1,9)=0.005,
   XUNIF_Z0(1,10)=0.005,
   XUNIF_Z0(1,11)=0.005,
   XUNIF_Z0(1,12)=0.005,
   XUNIF_EMIS(1,1)=0.97,
   XUNIF_EMIS(1,2)=0.97,
   XUNIF_EMIS(1,3)=0.97,
   XUNIF_EMIS(1,4)=0.97,
   XUNIF_EMIS(1,5)=0.97,
   XUNIF_EMIS(1,6)=0.97,
   XUNIF_EMIS(1,7)=0.97,
   XUNIF_EMIS(1,8)=0.97,
   XUNIF_EMIS(1,9)=0.97,
   XUNIF_EMIS(1,10)=0.97,
   XUNIF_EMIS(1,11)=0.97,
   XUNIF_EMIS(1,12)=0.97,
   XUNIF_RSMIN(1)=40.,
   XUNIF_GAMMA(1)=0.04,
   XUNIF_WRMAX_CF(1)=0.2,
   XUNIF_RGL(1)=30.,
   XUNIF_CV(1)=0.00002,
   XUNIF_Z0_O_Z0H(1)=10.,
   XUNIF_ALBNIR_VEG(1,1)=0.2,
   XUNIF_ALBNIR_VEG(1,2)=0.2,
   XUNIF_ALBNIR_VEG(1,3)=0.2,
   XUNIF_ALBNIR_VEG(1,4)=0.2,
   XUNIF_ALBNIR_VEG(1,5)=0.2,
   XUNIF_ALBNIR_VEG(1,6)=0.2,
   XUNIF_ALBNIR_VEG(1,7)=0.2,
   XUNIF_ALBNIR_VEG(1,8)=0.2,
   XUNIF_ALBNIR_VEG(1,9)=0.2,
   XUNIF_ALBNIR_VEG(1,10)=0.2,
   XUNIF_ALBNIR_VEG(1,11)=0.2,
   XUNIF_ALBNIR_VEG(1,12)=0.2,
   XUNIF_ALBVIS_VEG(1,1)=0.2,
   XUNIF_ALBVIS_VEG(1,2)=0.2,
   XUNIF_ALBVIS_VEG(1,3)=0.2,
   XUNIF_ALBVIS_VEG(1,4)=0.2,
   XUNIF_ALBVIS_VEG(1,5)=0.2,
   XUNIF_ALBVIS_VEG(1,6)=0.2,
   XUNIF_ALBVIS_VEG(1,7)=0.2,
   XUNIF_ALBVIS_VEG(1,8)=0.2,
   XUNIF_ALBVIS_VEG(1,9)=0.2,
   XUNIF_ALBVIS_VEG(1,10)=0.2,
   XUNIF_ALBVIS_VEG(1,11)=0.2,
   XUNIF_ALBVIS_VEG(1,12)=0.2,
   XUNIF_ALBUV_VEG(1,1)=0.2,
   XUNIF_ALBUV_VEG(1,2)=0.2,
   XUNIF_ALBUV_VEG(1,3)=0.2,
   XUNIF_ALBUV_VEG(1,4)=0.2,
   XUNIF_ALBUV_VEG(1,5)=0.2,
   XUNIF_ALBUV_VEG(1,6)=0.2,
   XUNIF_ALBUV_VEG(1,7)=0.2,
   XUNIF_ALBUV_VEG(1,8)=0.2,
   XUNIF_ALBUV_VEG(1,9)=0.2,
   XUNIF_ALBUV_VEG(1,10)=0.2,
   XUNIF_ALBUV_VEG(1,11)=0.2,
   XUNIF_ALBUV_VEG(1,12)=0.2,
   XUNIF_ALBNIR_SOIL(1,1)=0.2,
   XUNIF_ALBNIR_SOIL(1,2)=0.2,
   XUNIF_ALBNIR_SOIL(1,3)=0.2,
   XUNIF_ALBNIR_SOIL(1,4)=0.2,
   XUNIF_ALBNIR_SOIL(1,5)=0.2,
   XUNIF_ALBNIR_SOIL(1,6)=0.2,
   XUNIF_ALBNIR_SOIL(1,7)=0.2,
   XUNIF_ALBNIR_SOIL(1,8)=0.2,
   XUNIF_ALBNIR_SOIL(1,9)=0.2,
   XUNIF_ALBNIR_SOIL(1,10)=0.2,
   XUNIF_ALBNIR_SOIL(1,11)=0.2,
   XUNIF_ALBNIR_SOIL(1,12)=0.2,
   XUNIF_ALBVIS_SOIL(1,1)=0.2,
   XUNIF_ALBVIS_SOIL(1,2)=0.2,
   XUNIF_ALBVIS_SOIL(1,3)=0.2,
   XUNIF_ALBVIS_SOIL(1,4)=0.2,
   XUNIF_ALBVIS_SOIL(1,5)=0.2,
   XUNIF_ALBVIS_SOIL(1,6)=0.2,
   XUNIF_ALBVIS_SOIL(1,7)=0.2,
   XUNIF_ALBVIS_SOIL(1,8)=0.2,
   XUNIF_ALBVIS_SOIL(1,9)=0.2,
   XUNIF_ALBVIS_SOIL(1,10)=0.2,
   XUNIF_ALBVIS_SOIL(1,11)=0.2,
   XUNIF_ALBVIS_SOIL(1,12)=0.2,
   XUNIF_ALBUV_SOIL(1,1)=0.2,
   XUNIF_ALBUV_SOIL(1,2)=0.2,
   XUNIF_ALBUV_SOIL(1,3)=0.2,
   XUNIF_ALBUV_SOIL(1,4)=0.2,
   XUNIF_ALBUV_SOIL(1,5)=0.2,
   XUNIF_ALBUV_SOIL(1,6)=0.2,
   XUNIF_ALBUV_SOIL(1,7)=0.2,
   XUNIF_ALBUV_SOIL(1,8)=0.2,
   XUNIF_ALBUV_SOIL(1,9)=0.2,
   XUNIF_ALBUV_SOIL(1,10)=0.2,
   XUNIF_ALBUV_SOIL(1,11)=0.2,
   XUNIF_ALBUV_SOIL(1,12)=0.2,
   XUNIF_GMES(1)=0.001,
   XUNIF_RE25(1)=1.8D-7,
   XUNIF_BSLAI(1)=0.08,
   XUNIF_LAIMIN(1)=0.3,
   XUNIF_SEFOLD(1)=12960000.,
   XUNIF_GC(1)=0.00025,
   XUNIF_DMAX(1)=0.05,
   XUNIF_F2I(1)=0.3,
   XUNIF_H_TREE(1)=20.,
   XUNIF_CE_NITRO(1)=5.56,
   XUNIF_CF_NITRO(1)=6.73,
   XUNIF_CNA_NITRO(1)=1.3,
   XUNIF_ROOT_DEPTH=1.,
   XUNIF_GROUND_DEPTH=10.,
   XUNIF_ROOT_LIN=0.05,
   XUNIF_ROOT_EXTINCTION=0.943,
 /
 &NAM_DIAG_ISBAN
   LPGD=.TRUE.,
   LSURF_EVAP_BUDGET=.TRUE.,
   LSURF_MISC_BUDGET=.TRUE.,
   LPROSNOW=.TRUE.,
   LVOLUMETRIC_SNOWLIQ=.TRUE.,
   LWATER_BUDGET=.TRUE.,
   LPROBANDS=.TRUE.,
   LSPECMOD=.TRUE.,
 /
 &NAM_DIAG_SURFN
   LSURF_BUDGET=.TRUE.,
   N2M=1,
   LCOEF=.FALSE.,
   LSURF_VARS=.FALSE.,
   LSURF_BUDGETC=.TRUE.,
   LRAD_BUDGET=.TRUE.,
   LRESET_BUDGETC=.TRUE.,
 /
 &NAM_DIAG_SURF_ATMN
   LFRAC=.FALSE.,
 /
 &NAM_DIAG_TEBN
   LSURF_MISC_BUDGET=.FALSE.,
 /
 &NAM_ENS
   NENS=8,
 /
 &NAM_FRAC
   LECOCLIMAP=.FALSE.,
   XUNIF_SEA=0.,
   XUNIF_WATER=0.,
   XUNIF_TOWN=0.,
   XUNIF_NATURE=1.,
 /
 &NAM_IO_OFFLINE
   LPRINT=.TRUE.,
   CFORCING_FILETYPE='NETCDF',
   CSURF_FILETYPE='NC ',
   CTIMESERIES_FILETYPE='NETCDF',
   LRESTART=.TRUE.,
   XTSTEP_OUTPUT=21600.,
   XTSTEP_SURF=900.,
   LWRITE_TOPO=.FALSE.,
   LSPECSNOW=.TRUE.,
   LFORCIMP=.FALSE.,
   NIMPUROF=2,
   LWRITE_COORD=.FALSE.,
   NDATESTOP=2014,7,30,21600,
   LDELAYEDSTART_NC=.TRUE.,
   LFIX_OUTPUT=.TRUE.,
 /
 &NAM_ISBA
   XUNIF_CLAY=0.3,
   XUNIF_SAND=0.6,
   XUNIF_RUNOFFB=0.5,
   CISBA='DIF',
   CPHOTO='NON',
   NPATCH=1,
   NGROUND_LAYER=20,
   XSOILGRID=0.01,0.03,0.06,0.1,0.2,0.3,0.45,0.6,0.8,1.,1.25,1.5,2.,2.5,3.,4.,5.,6.5,8.,10.,
 /
 &NAM_ISBAN
   CSCOND='PL98',
   CSOILFRZ='LWT',
   CDIFSFCOND='DEF ',
   CSNOWRES='RIL',
   CCPSURF='DRY',
   XCVHEATF=0.6,
 /
 &NAM_ISBA_SNOWN
   LSNOWDRIFT_SUBLIM=.FALSE.,
   LSNOW_ABS_ZENITH=.FALSE.,
   CSNOWMETAMO='C13',
   CSNOWRAD='B92',
   LATMORAD=.FALSE.,
   CSNOWMOB = "VI12",
 /
 &NAM_LONLATVAL
   XX=6.225,6.377167,6.076333,6.169333,6.072833,6.1,6.071667,6.097667,6.217333,
   XY=45.05117,45.05683,45.05717,45.071,45.09767,45.1,45.12817,45.15883,45.2195,
   XDX=0.5,0.5,0.5,0.5,0.5,0.5,0.5,0.5,0.5,
   XDY=0.5,0.5,0.5,0.5,0.5,0.5,0.5,0.5,0.5,
   NPOINTS=9,
 /
 &NAM_OBS
   NOBSTYPE=1,
   CFILE_FORMAT_OBS="NC   ",
   COBS_M='DEP',
   NNCO=1,
   XERROBS_M=0.05,
   XERROBS_FACTOR_M=1,
 /
 &NAM_PGD_GRID
   CGRID='LONLATVAL',
 /
 &NAM_PGD_SCHEMES
   CNATURE='ISBA  ',
   CSEA='SEAFLX',
   CTOWN='TEB   ',
   CWATER='WATFLX',
 /
 &NAM_PREP_ISBA
   XHUG_SURF=0.1,
   XHUG_ROOT=0.1,
   XHUG_DEEP=0.1,
   CFILE_TG='init_TG.nc',
   CTYPE_TG='NETCDF',
 /
 &NAM_PREP_ISBA_SNOW
   CSNOW='CRO',
   NSNOW_LAYER=50,
   LSNOW_FRAC_TOT=.TRUE.,
   NIMPUR=2,
   LSNOW_PREP_PERM=.FALSE.,
 /
 &NAM_PREP_SURF_ATM
   NYEAR=2013,
   NMONTH=8,
   NDAY=1,
   XTIME=21600.,
 /
 &NAM_SGH_ISBAN
   CRUNOFF='DT92',
 /
 &NAM_SURF_ATM
   LVERTSHIFT=.FALSE.,
   LNOSOF=.TRUE.,
   LSLOPE=.TRUE.,
 /
 &NAM_SURF_CSTS
 /
 &NAM_SURF_SNOW_CSTS
   XALBICE1=0.38,
   XALBICE2=0.23,
   XALBICE3=0.08,
   XRHOTHRESHOLD_ICE=850.,
   XZ0ICEZ0SNOW=10.,
   XVAGING_GLACIER=900.,
   XVAGING_NOGLACIER=60.,
 /
 &NAM_VAR
   NVAR=1,
   CVAR_M='DEP',
   NNCV=1,
   XTAUSCF=4,
   XCEILSCF=20,
 /
 &NAM_WRITE_DIAG_SURFN
   LRESETCUMUL=.TRUE.,
   LPROVAR_TO_DIAG=.TRUE.,
   LSNOWDIMNC=.TRUE.,
   LSELECT=.TRUE.,
   CSELECT='SPECMOD',
 /
 &NAM_WRITE_SURF_ATM
   LSPLIT_PATCH=.FALSE.,
 /
 &NAM_ZS
   LIMP_ZS=.TRUE.,
   YZSFILETYPE='NETCDF',
   YZS='FORCING.nc',
   YSLOPE='FORCING.nc',
   YSLOPEFILETYPE='NETCDF',
 /
