&NAM_COVER
   YCOVER='ECOCLIMAP_II_EUROP',
   YCOVERFILETYPE='DIRECT',
   XRM_COVER=0.01,
 /
 &NAM_DIAG_ISBAN
   LPGD=.TRUE.,
   LSURF_EVAP_BUDGET=.TRUE.,
   LSURF_MISC_BUDGET=.TRUE.,
   LPROSNOW=.TRUE.,
   LVOLUMETRIC_SNOWLIQ = .TRUE.,
   LWATER_BUDGET = .TRUE.
 /
 &NAM_DIAG_SURFN
   LSURF_BUDGET=.TRUE.,
   N2M=1,
   LCOEF=.FALSE.,
   LSURF_VARS=.FALSE.,
   LSURF_BUDGETC=.TRUE.,
 /
 &NAM_DIAG_SURF_ATMN
   LFRAC=.FALSE.,
/
 &NAM_DIAG_TEBN
   LSURF_MISC_BUDGET=.FALSE.,
 /
 &NAM_ECOCLIMAP2
   LCLIM_LAI=.TRUE.,
 /
 &NAM_ENS
   NENS=35,
 /
 &NAM_FRAC
   LECOCLIMAP=.TRUE.,
/
 &NAM_IO_OFFLINE
   LDELAYEDSTART_NC=.TRUE.,
   LPRINT=.TRUE.,
   CFORCING_FILETYPE='NETCDF',
   LSHADOWS_SLOPE=.TRUE.,
   LSHADOWS_OTHER=.TRUE.,
   CSURF_FILETYPE='NC ',
   CTIMESERIES_FILETYPE='NETCDF',
   LRESTART=.TRUE.,
   XTSTEP_OUTPUT=21600.,
   XTSTEP_SURF=900.,
   LWRITE_COORD=.FALSE.,
   LWRITE_TOPO=.FALSE., 
/
 &NAM_ISBA
   YCLAY='CLAY_HWSD_MOY',
   YCLAYFILETYPE='DIRECT',
   YSAND='SAND_HWSD_MOY',
   YSANDFILETYPE='DIRECT',
   XUNIF_RUNOFFB=0.5,
   CISBA='DIF',
   CPHOTO='NON',
   NPATCH=1,
   CALBEDO='MEAN',
 /
 &NAM_ISBAN
   CSCOND='PL98',
   CSOILFRZ='LWT',
   CDIFSFCOND='DEF ',
   CSNOWRES='RIL',
   XCVHEATF=0.6,
   CCPSURF='DRY',
 /
 &NAM_ISBA_SNOWN
  CSNOWDRIFT='NONE'
  LSNOWDRIFT_SUBLIM= .FALSE.
  LSNOW_ABS_ZENITH= .FALSE.
  CSNOWMETAMO='B21'
  CSNOWRAD='B92'
  LSNOWPAPPUS=.TRUE.
 /
 &NAM_PGD_ARRANGE_COVER
   LWATER_TO_NATURE=.TRUE.,
   LTOWN_TO_ROCK=.TRUE.,
 /
 &NAM_PGD_GRID
   CGRID='IGN',
 /
 &NAM_PGD_SCHEMES
   CNATURE='ISBA  ',
   CSEA='NONE',
   CTOWN='NONE ',
   CWATER='NONE',
 /
 &NAM_PREP_ISBA
   XHUG_SURF=0.1,
   XHUG_ROOT=0.1,
   XHUG_DEEP=0.1,
   XTG_SURF=273.16,
   XTG_ROOT=273.16,
   XTG_DEEP=273.16,
 /
 &NAM_PREP_ISBA_SNOW
   CSNOW='CRO',
   LSNOW_FRAC_TOT=.TRUE.,
 /
 &NAM_PREP_SURF_ATM
   NYEAR=2014,
   NMONTH=8,
   NDAY=1,
   XTIME=21600.,
 /
 &NAM_SURF_ATM
   LVERTSHIFT=.FALSE.,
   LNOSOF=.TRUE.,
   LSLOPE=.TRUE.,
 /
 &NAM_SURF_SNOW_CSTS
   XALBICE1=0.38,
   XALBICE2=0.23,
   XALBICE3=0.08,
   XRHOTHRESHOLD_ICE=850.,
   X_RI_MAX=0.026,
   XZ0ICEZ0SNOW=10.,
   XVAGING_GLACIER=900.,
   XVAGING_NOGLACIER=60.,
 /
 &NAM_WRITE_DIAG_SURFN
   LRESETCUMUL= .TRUE.,
   LPROVAR_TO_DIAG=.TRUE.,
   LSNOWDIMNC=.TRUE.,
   LSELECT=.TRUE.,
   CSELECT='time','TG1','TG10','SNOWHEAT','SNOWTEMP','TALB_ISBA','TS_ISBA','WSN_T_ISBA','DSN_T_ISBA','SNOWLIQ','SNOWDZ','SNOWTYPE','SNOWTEMP','SNOWSWE','SNOMLT_ISBA','RAINF_ISBA','SNOWF_ISBA',
/
 &NAM_WRITE_SURF_ATM
   LSPLIT_PATCH=.FALSE.,
 /
 &NAM_ZS
   LIMP_ZS=.TRUE.,
   YZSFILETYPE='NETCDF',
   YZS='FORCING.nc',
   LEXPLICIT_SLOPE=.TRUE.,
 /
 &NAM_ZS_FILTER
   NZSFILTER=0,
 /
 &NAM_SGH_ISBAn         CRUNOFF    = "DT92"
 /
&NAM_IGN               CLAMBERT = 'L93',
                       XCELLSIZE = 250,
                       XX_LLCORNER = 569536,
                       XY_LLCORNER = 6186718,
                       NCOLS = 5,
                       NROWS = 3
/
