 &NAM_DATA_ISBA
   NTIME=36,
   XUNIF_ALBNIR_SOIL(1,1)=0.2,
   XUNIF_ALBNIR_SOIL(1,2)=0.2,
   XUNIF_ALBNIR_SOIL(1,3)=0.2,
   XUNIF_ALBNIR_SOIL(1,4)=0.2,
   XUNIF_ALBNIR_SOIL(1,5)=0.2,
   XUNIF_ALBNIR_SOIL(1,6)=0.2,
   XUNIF_ALBNIR_SOIL(1,7)=0.2,
   XUNIF_ALBNIR_SOIL(1,8)=0.2,
   XUNIF_ALBNIR_SOIL(1,9)=0.2,
   XUNIF_ALBNIR_SOIL(1,10)=0.2,
   XUNIF_ALBNIR_SOIL(1,11)=0.2,
   XUNIF_ALBNIR_SOIL(1,12)=0.2,
   XUNIF_ALBNIR_SOIL(1,13)=0.2,
   XUNIF_ALBNIR_SOIL(1,14)=0.2,
   XUNIF_ALBNIR_SOIL(1,15)=0.2,
   XUNIF_ALBNIR_SOIL(1,16)=0.2,
   XUNIF_ALBNIR_SOIL(1,17)=0.2,
   XUNIF_ALBNIR_SOIL(1,18)=0.2,
   XUNIF_ALBNIR_SOIL(1,19)=0.2,
   XUNIF_ALBNIR_SOIL(1,20)=0.2,
   XUNIF_ALBNIR_SOIL(1,21)=0.2,
   XUNIF_ALBNIR_SOIL(1,22)=0.2,
   XUNIF_ALBNIR_SOIL(1,23)=0.2,
   XUNIF_ALBNIR_SOIL(1,24)=0.2,
   XUNIF_ALBNIR_SOIL(1,25)=0.2,
   XUNIF_ALBNIR_SOIL(1,26)=0.2,
   XUNIF_ALBNIR_SOIL(1,27)=0.2,
   XUNIF_ALBNIR_SOIL(1,28)=0.2,
   XUNIF_ALBNIR_SOIL(1,29)=0.2,
   XUNIF_ALBNIR_SOIL(1,30)=0.2,
   XUNIF_ALBNIR_SOIL(1,31)=0.2,
   XUNIF_ALBNIR_SOIL(1,32)=0.2,
   XUNIF_ALBNIR_SOIL(1,33)=0.2,
   XUNIF_ALBNIR_SOIL(1,34)=0.2,
   XUNIF_ALBNIR_SOIL(1,35)=0.2,
   XUNIF_ALBNIR_SOIL(1,36)=0.2,
   XUNIF_ALBNIR_VEG(1,1)=0.2,
   XUNIF_ALBNIR_VEG(1,2)=0.2,
   XUNIF_ALBNIR_VEG(1,3)=0.2,
   XUNIF_ALBNIR_VEG(1,4)=0.2,
   XUNIF_ALBNIR_VEG(1,5)=0.2,
   XUNIF_ALBNIR_VEG(1,6)=0.2,
   XUNIF_ALBNIR_VEG(1,7)=0.2,
   XUNIF_ALBNIR_VEG(1,8)=0.2,
   XUNIF_ALBNIR_VEG(1,9)=0.2,
   XUNIF_ALBNIR_VEG(1,10)=0.2,
   XUNIF_ALBNIR_VEG(1,11)=0.2,
   XUNIF_ALBNIR_VEG(1,12)=0.2,
   XUNIF_ALBNIR_VEG(1,13)=0.2,
   XUNIF_ALBNIR_VEG(1,14)=0.2,
   XUNIF_ALBNIR_VEG(1,15)=0.2,
   XUNIF_ALBNIR_VEG(1,16)=0.2,
   XUNIF_ALBNIR_VEG(1,17)=0.2,
   XUNIF_ALBNIR_VEG(1,18)=0.2,
   XUNIF_ALBNIR_VEG(1,19)=0.2,
   XUNIF_ALBNIR_VEG(1,20)=0.2,
   XUNIF_ALBNIR_VEG(1,21)=0.2,
   XUNIF_ALBNIR_VEG(1,22)=0.2,
   XUNIF_ALBNIR_VEG(1,23)=0.2,
   XUNIF_ALBNIR_VEG(1,24)=0.2,
   XUNIF_ALBNIR_VEG(1,25)=0.2,
   XUNIF_ALBNIR_VEG(1,26)=0.2,
   XUNIF_ALBNIR_VEG(1,27)=0.2,
   XUNIF_ALBNIR_VEG(1,28)=0.2,
   XUNIF_ALBNIR_VEG(1,29)=0.2,
   XUNIF_ALBNIR_VEG(1,30)=0.2,
   XUNIF_ALBNIR_VEG(1,31)=0.2,
   XUNIF_ALBNIR_VEG(1,32)=0.2,
   XUNIF_ALBNIR_VEG(1,33)=0.2,
   XUNIF_ALBNIR_VEG(1,34)=0.2,
   XUNIF_ALBNIR_VEG(1,35)=0.2,
   XUNIF_ALBNIR_VEG(1,36)=0.2,
   XUNIF_ALBUV_SOIL(1,1)=0.2,
   XUNIF_ALBUV_SOIL(1,2)=0.2,
   XUNIF_ALBUV_SOIL(1,3)=0.2,
   XUNIF_ALBUV_SOIL(1,4)=0.2,
   XUNIF_ALBUV_SOIL(1,5)=0.2,
   XUNIF_ALBUV_SOIL(1,6)=0.2,
   XUNIF_ALBUV_SOIL(1,7)=0.2,
   XUNIF_ALBUV_SOIL(1,8)=0.2,
   XUNIF_ALBUV_SOIL(1,9)=0.2,
   XUNIF_ALBUV_SOIL(1,10)=0.2,
   XUNIF_ALBUV_SOIL(1,11)=0.2,
   XUNIF_ALBUV_SOIL(1,12)=0.2,
   XUNIF_ALBUV_SOIL(1,13)=0.2,
   XUNIF_ALBUV_SOIL(1,14)=0.2,
   XUNIF_ALBUV_SOIL(1,15)=0.2,
   XUNIF_ALBUV_SOIL(1,16)=0.2,
   XUNIF_ALBUV_SOIL(1,17)=0.2,
   XUNIF_ALBUV_SOIL(1,18)=0.2,
   XUNIF_ALBUV_SOIL(1,19)=0.2,
   XUNIF_ALBUV_SOIL(1,20)=0.2,
   XUNIF_ALBUV_SOIL(1,21)=0.2,
   XUNIF_ALBUV_SOIL(1,22)=0.2,
   XUNIF_ALBUV_SOIL(1,23)=0.2,
   XUNIF_ALBUV_SOIL(1,24)=0.2,
   XUNIF_ALBUV_SOIL(1,25)=0.2,
   XUNIF_ALBUV_SOIL(1,26)=0.2,
   XUNIF_ALBUV_SOIL(1,27)=0.2,
   XUNIF_ALBUV_SOIL(1,28)=0.2,
   XUNIF_ALBUV_SOIL(1,29)=0.2,
   XUNIF_ALBUV_SOIL(1,30)=0.2,
   XUNIF_ALBUV_SOIL(1,31)=0.2,
   XUNIF_ALBUV_SOIL(1,32)=0.2,
   XUNIF_ALBUV_SOIL(1,33)=0.2,
   XUNIF_ALBUV_SOIL(1,34)=0.2,
   XUNIF_ALBUV_SOIL(1,35)=0.2,
   XUNIF_ALBUV_SOIL(1,36)=0.2,
   XUNIF_ALBUV_VEG(1,1)=0.2,
   XUNIF_ALBUV_VEG(1,2)=0.2,
   XUNIF_ALBUV_VEG(1,3)=0.2,
   XUNIF_ALBUV_VEG(1,4)=0.2,
   XUNIF_ALBUV_VEG(1,5)=0.2,
   XUNIF_ALBUV_VEG(1,6)=0.2,
   XUNIF_ALBUV_VEG(1,7)=0.2,
   XUNIF_ALBUV_VEG(1,8)=0.2,
   XUNIF_ALBUV_VEG(1,9)=0.2,
   XUNIF_ALBUV_VEG(1,10)=0.2,
   XUNIF_ALBUV_VEG(1,11)=0.2,
   XUNIF_ALBUV_VEG(1,12)=0.2,
   XUNIF_ALBUV_VEG(1,13)=0.2,
   XUNIF_ALBUV_VEG(1,14)=0.2,
   XUNIF_ALBUV_VEG(1,15)=0.2,
   XUNIF_ALBUV_VEG(1,16)=0.2,
   XUNIF_ALBUV_VEG(1,17)=0.2,
   XUNIF_ALBUV_VEG(1,18)=0.2,
   XUNIF_ALBUV_VEG(1,19)=0.2,
   XUNIF_ALBUV_VEG(1,20)=0.2,
   XUNIF_ALBUV_VEG(1,21)=0.2,
   XUNIF_ALBUV_VEG(1,22)=0.2,
   XUNIF_ALBUV_VEG(1,23)=0.2,
   XUNIF_ALBUV_VEG(1,24)=0.2,
   XUNIF_ALBUV_VEG(1,25)=0.2,
   XUNIF_ALBUV_VEG(1,26)=0.2,
   XUNIF_ALBUV_VEG(1,27)=0.2,
   XUNIF_ALBUV_VEG(1,28)=0.2,
   XUNIF_ALBUV_VEG(1,29)=0.2,
   XUNIF_ALBUV_VEG(1,30)=0.2,
   XUNIF_ALBUV_VEG(1,31)=0.2,
   XUNIF_ALBUV_VEG(1,32)=0.2,
   XUNIF_ALBUV_VEG(1,33)=0.2,
   XUNIF_ALBUV_VEG(1,34)=0.2,
   XUNIF_ALBUV_VEG(1,35)=0.2,
   XUNIF_ALBUV_VEG(1,36)=0.2,
   XUNIF_ALBVIS_SOIL(1,1)=0.2,
   XUNIF_ALBVIS_SOIL(1,2)=0.2,
   XUNIF_ALBVIS_SOIL(1,3)=0.2,
   XUNIF_ALBVIS_SOIL(1,4)=0.2,
   XUNIF_ALBVIS_SOIL(1,5)=0.2,
   XUNIF_ALBVIS_SOIL(1,6)=0.2,
   XUNIF_ALBVIS_SOIL(1,7)=0.2,
   XUNIF_ALBVIS_SOIL(1,8)=0.2,
   XUNIF_ALBVIS_SOIL(1,9)=0.2,
   XUNIF_ALBVIS_SOIL(1,10)=0.2,
   XUNIF_ALBVIS_SOIL(1,11)=0.2,
   XUNIF_ALBVIS_SOIL(1,12)=0.2,
   XUNIF_ALBVIS_SOIL(1,13)=0.2,
   XUNIF_ALBVIS_SOIL(1,14)=0.2,
   XUNIF_ALBVIS_SOIL(1,15)=0.2,
   XUNIF_ALBVIS_SOIL(1,16)=0.2,
   XUNIF_ALBVIS_SOIL(1,17)=0.2,
   XUNIF_ALBVIS_SOIL(1,18)=0.2,
   XUNIF_ALBVIS_SOIL(1,19)=0.2,
   XUNIF_ALBVIS_SOIL(1,20)=0.2,
   XUNIF_ALBVIS_SOIL(1,21)=0.2,
   XUNIF_ALBVIS_SOIL(1,22)=0.2,
   XUNIF_ALBVIS_SOIL(1,23)=0.2,
   XUNIF_ALBVIS_SOIL(1,24)=0.2,
   XUNIF_ALBVIS_SOIL(1,25)=0.2,
   XUNIF_ALBVIS_SOIL(1,26)=0.2,
   XUNIF_ALBVIS_SOIL(1,27)=0.2,
   XUNIF_ALBVIS_SOIL(1,28)=0.2,
   XUNIF_ALBVIS_SOIL(1,29)=0.2,
   XUNIF_ALBVIS_SOIL(1,30)=0.2,
   XUNIF_ALBVIS_SOIL(1,31)=0.2,
   XUNIF_ALBVIS_SOIL(1,32)=0.2,
   XUNIF_ALBVIS_SOIL(1,33)=0.2,
   XUNIF_ALBVIS_SOIL(1,34)=0.2,
   XUNIF_ALBVIS_SOIL(1,35)=0.2,
   XUNIF_ALBVIS_SOIL(1,36)=0.2,
   XUNIF_ALBVIS_VEG(1,1)=0.2,
   XUNIF_ALBVIS_VEG(1,2)=0.2,
   XUNIF_ALBVIS_VEG(1,3)=0.2,
   XUNIF_ALBVIS_VEG(1,4)=0.2,
   XUNIF_ALBVIS_VEG(1,5)=0.2,
   XUNIF_ALBVIS_VEG(1,6)=0.2,
   XUNIF_ALBVIS_VEG(1,7)=0.2,
   XUNIF_ALBVIS_VEG(1,8)=0.2,
   XUNIF_ALBVIS_VEG(1,9)=0.2,
   XUNIF_ALBVIS_VEG(1,10)=0.2,
   XUNIF_ALBVIS_VEG(1,11)=0.2,
   XUNIF_ALBVIS_VEG(1,12)=0.2,
   XUNIF_ALBVIS_VEG(1,13)=0.2,
   XUNIF_ALBVIS_VEG(1,14)=0.2,
   XUNIF_ALBVIS_VEG(1,15)=0.2,
   XUNIF_ALBVIS_VEG(1,16)=0.2,
   XUNIF_ALBVIS_VEG(1,17)=0.2,
   XUNIF_ALBVIS_VEG(1,18)=0.2,
   XUNIF_ALBVIS_VEG(1,19)=0.2,
   XUNIF_ALBVIS_VEG(1,20)=0.2,
   XUNIF_ALBVIS_VEG(1,21)=0.2,
   XUNIF_ALBVIS_VEG(1,22)=0.2,
   XUNIF_ALBVIS_VEG(1,23)=0.2,
   XUNIF_ALBVIS_VEG(1,24)=0.2,
   XUNIF_ALBVIS_VEG(1,25)=0.2,
   XUNIF_ALBVIS_VEG(1,26)=0.2,
   XUNIF_ALBVIS_VEG(1,27)=0.2,
   XUNIF_ALBVIS_VEG(1,28)=0.2,
   XUNIF_ALBVIS_VEG(1,29)=0.2,
   XUNIF_ALBVIS_VEG(1,30)=0.2,
   XUNIF_ALBVIS_VEG(1,31)=0.2,
   XUNIF_ALBVIS_VEG(1,32)=0.2,
   XUNIF_ALBVIS_VEG(1,33)=0.2,
   XUNIF_ALBVIS_VEG(1,34)=0.2,
   XUNIF_ALBVIS_VEG(1,35)=0.2,
   XUNIF_ALBVIS_VEG(1,36)=0.2,
   XUNIF_BSLAI(1)=0.08,
   XUNIF_CE_NITRO(1)=5.56,
   XUNIF_CF_NITRO(1)=6.73,
   XUNIF_CNA_NITRO(1)=1.3,
   XUNIF_CV(1)=0.00002,
   XUNIF_DMAX(1)=0.05,
   XUNIF_EMIS(1,1)=0.97,
   XUNIF_EMIS(1,2)=0.97,
   XUNIF_EMIS(1,3)=0.97,
   XUNIF_EMIS(1,4)=0.97,
   XUNIF_EMIS(1,5)=0.97,
   XUNIF_EMIS(1,6)=0.97,
   XUNIF_EMIS(1,7)=0.97,
   XUNIF_EMIS(1,8)=0.97,
   XUNIF_EMIS(1,9)=0.97,
   XUNIF_EMIS(1,10)=0.97,
   XUNIF_EMIS(1,11)=0.97,
   XUNIF_EMIS(1,12)=0.97,
   XUNIF_EMIS(1,13)=0.97,
   XUNIF_EMIS(1,14)=0.97,
   XUNIF_EMIS(1,15)=0.97,
   XUNIF_EMIS(1,16)=0.97,
   XUNIF_EMIS(1,17)=0.97,
   XUNIF_EMIS(1,18)=0.97,
   XUNIF_EMIS(1,19)=0.97,
   XUNIF_EMIS(1,20)=0.97,
   XUNIF_EMIS(1,21)=0.97,
   XUNIF_EMIS(1,22)=0.97,
   XUNIF_EMIS(1,23)=0.97,
   XUNIF_EMIS(1,24)=0.97,
   XUNIF_EMIS(1,25)=0.97,
   XUNIF_EMIS(1,26)=0.97,
   XUNIF_EMIS(1,27)=0.97,
   XUNIF_EMIS(1,28)=0.97,
   XUNIF_EMIS(1,29)=0.97,
   XUNIF_EMIS(1,30)=0.97,
   XUNIF_EMIS(1,31)=0.97,
   XUNIF_EMIS(1,32)=0.97,
   XUNIF_EMIS(1,33)=0.97,
   XUNIF_EMIS(1,34)=0.97,
   XUNIF_EMIS(1,35)=0.97,
   XUNIF_EMIS(1,36)=0.97,
   XUNIF_F2I(1)=0.3,
   XUNIF_GAMMA(1)=0.04,
   XUNIF_GC(1)=0.00025,
   XUNIF_GMES(1)=0.001,
   XUNIF_GNDLITTER(1,1)=0.02,
   XUNIF_GNDLITTER(1,2)=0.02,
   XUNIF_GNDLITTER(1,3)=0.02,
   XUNIF_GNDLITTER(1,4)=0.02,
   XUNIF_GNDLITTER(1,5)=0.02,
   XUNIF_GNDLITTER(1,6)=0.02,
   XUNIF_GNDLITTER(1,7)=0.02,
   XUNIF_GNDLITTER(1,8)=0.02,
   XUNIF_GNDLITTER(1,9)=0.02,
   XUNIF_GNDLITTER(1,10)=0.02,
   XUNIF_GNDLITTER(1,11)=0.02,
   XUNIF_GNDLITTER(1,12)=0.02,
   XUNIF_GNDLITTER(1,13)=0.02,
   XUNIF_GNDLITTER(1,14)=0.02,
   XUNIF_GNDLITTER(1,15)=0.02,
   XUNIF_GNDLITTER(1,16)=0.02,
   XUNIF_GNDLITTER(1,17)=0.02,
   XUNIF_GNDLITTER(1,18)=0.02,
   XUNIF_GNDLITTER(1,19)=0.02,
   XUNIF_GNDLITTER(1,20)=0.02,
   XUNIF_GNDLITTER(1,21)=0.02,
   XUNIF_GNDLITTER(1,22)=0.02,
   XUNIF_GNDLITTER(1,23)=0.02,
   XUNIF_GNDLITTER(1,24)=0.02,
   XUNIF_GNDLITTER(1,25)=0.02,
   XUNIF_GNDLITTER(1,26)=0.02,
   XUNIF_GNDLITTER(1,27)=0.02,
   XUNIF_GNDLITTER(1,28)=0.02,
   XUNIF_GNDLITTER(1,29)=0.02,
   XUNIF_GNDLITTER(1,30)=0.02,
   XUNIF_GNDLITTER(1,31)=0.02,
   XUNIF_GNDLITTER(1,32)=0.02,
   XUNIF_GNDLITTER(1,33)=0.02,
   XUNIF_GNDLITTER(1,34)=0.02,
   XUNIF_GNDLITTER(1,35)=0.02,
   XUNIF_GNDLITTER(1,36)=0.02,
   XUNIF_GROUND_DEPTH=10.,
   XUNIF_H_TREE(1)=0.,
   XUNIF_H_TREE(2)=0.,
   XUNIF_H_TREE(3)=0.,
   XUNIF_H_TREE(4)=0.,
   XUNIF_H_TREE(5)=0.,
   XUNIF_H_TREE(6)=0.,
   XUNIF_H_TREE(7)=0.,
   XUNIF_H_TREE(8)=0.,
   XUNIF_H_TREE(9)=0.,
   XUNIF_H_TREE(10)=0.,
   XUNIF_H_TREE(11)=0.,
   XUNIF_H_TREE(12)=0.,
   XUNIF_H_TREE(13)=0.,
   XUNIF_H_TREE(14)=0.,
   XUNIF_H_TREE(15)=0.,
   XUNIF_H_TREE(16)=0.,
   XUNIF_H_TREE(17)=0.,
   XUNIF_H_TREE(18)=0.,
   XUNIF_H_TREE(19)=0.,
   XUNIF_H_VEG(1,1)=0.01,
   XUNIF_H_VEG(1,2)=0.01,
   XUNIF_H_VEG(1,3)=0.01,
   XUNIF_H_VEG(1,4)=0.01,
   XUNIF_H_VEG(1,5)=0.01,
   XUNIF_H_VEG(1,6)=0.01,
   XUNIF_H_VEG(1,7)=0.01,
   XUNIF_H_VEG(1,8)=0.01,
   XUNIF_H_VEG(1,9)=0.01,
   XUNIF_H_VEG(1,10)=0.01047619,
   XUNIF_H_VEG(1,11)=0.012,
   XUNIF_H_VEG(1,12)=0.01457143,
   XUNIF_H_VEG(1,13)=0.02114286,
   XUNIF_H_VEG(1,14)=0.04028571,
   XUNIF_H_VEG(1,15)=0.072,
   XUNIF_H_VEG(1,16)=0.1,
   XUNIF_H_VEG(1,17)=0.1,
   XUNIF_H_VEG(1,18)=0.1,
   XUNIF_H_VEG(1,19)=0.1,
   XUNIF_H_VEG(1,20)=0.1,
   XUNIF_H_VEG(1,21)=0.1,
   XUNIF_H_VEG(1,22)=0.1,
   XUNIF_H_VEG(1,23)=0.1,
   XUNIF_H_VEG(1,24)=0.1,
   XUNIF_H_VEG(1,25)=0.1,
   XUNIF_H_VEG(1,26)=0.1,
   XUNIF_H_VEG(1,27)=0.1,
   XUNIF_H_VEG(1,28)=0.1,
   XUNIF_H_VEG(1,29)=0.08338095,
   XUNIF_H_VEG(1,30)=0.06438095,
   XUNIF_H_VEG(1,31)=0.04642857,
   XUNIF_H_VEG(1,32)=0.03009524,
   XUNIF_H_VEG(1,33)=0.019,
   XUNIF_H_VEG(1,34)=0.01314286,
   XUNIF_H_VEG(1,35)=0.01157143,
   XUNIF_H_VEG(1,36)=0.01052381,
   XUNIF_LAI(1,1)=0.1,
   XUNIF_LAI(1,2)=0.1,
   XUNIF_LAI(1,3)=0.1,
   XUNIF_LAI(1,4)=0.1,
   XUNIF_LAI(1,5)=0.1,
   XUNIF_LAI(1,6)=0.1,
   XUNIF_LAI(1,7)=0.1,
   XUNIF_LAI(1,8)=0.1,
   XUNIF_LAI(1,9)=0.1,
   XUNIF_LAI(1,10)=0.1047619,
   XUNIF_LAI(1,11)=0.12,
   XUNIF_LAI(1,12)=0.1457143,
   XUNIF_LAI(1,13)=0.2114286,
   XUNIF_LAI(1,14)=0.4028571,
   XUNIF_LAI(1,15)=0.72,
   XUNIF_LAI(1,16)=1.1157143,
   XUNIF_LAI(1,17)=1.37,
   XUNIF_LAI(1,18)=1.4828571,
   XUNIF_LAI(1,19)=1.4671429,
   XUNIF_LAI(1,20)=1.4514286,
   XUNIF_LAI(1,21)=1.4357143,
   XUNIF_LAI(1,22)=1.42,
   XUNIF_LAI(1,23)=1.4042857,
   XUNIF_LAI(1,24)=1.3885714,
   XUNIF_LAI(1,25)=1.3728571,
   XUNIF_LAI(1,26)=1.3228571,
   XUNIF_LAI(1,27)=1.21,
   XUNIF_LAI(1,28)=1.0342857,
   XUNIF_LAI(1,29)=0.8338095,
   XUNIF_LAI(1,30)=0.6438095,
   XUNIF_LAI(1,31)=0.4642857,
   XUNIF_LAI(1,32)=0.3009524,
   XUNIF_LAI(1,33)=0.19,
   XUNIF_LAI(1,34)=0.1314286,
   XUNIF_LAI(1,35)=0.1157143,
   XUNIF_LAI(1,36)=0.1052381,
   XUNIF_LAIMIN(1)=0.3,
   XUNIF_RE25(1)=1.8D-7,
   XUNIF_RGL(1)=30.,
   XUNIF_ROOT_DEPTH=1.,
   XUNIF_ROOT_EXTINCTION=0.943,
   XUNIF_ROOT_LIN=0.05,
   XUNIF_RSMIN(1)=40.,
   XUNIF_SEFOLD(1)=12960000.,
   XUNIF_VEG(1,1)=1.,
   XUNIF_VEG(1,2)=1.,
   XUNIF_VEG(1,3)=1.,
   XUNIF_VEG(1,4)=1.,
   XUNIF_VEG(1,5)=1.,
   XUNIF_VEG(1,6)=1.,
   XUNIF_VEG(1,7)=1.,
   XUNIF_VEG(1,8)=1.,
   XUNIF_VEG(1,9)=1.,
   XUNIF_VEG(1,10)=1.,
   XUNIF_VEG(1,11)=1.,
   XUNIF_VEG(1,12)=1.,
   XUNIF_VEG(1,13)=1.,
   XUNIF_VEG(1,14)=1.,
   XUNIF_VEG(1,15)=1.,
   XUNIF_VEG(1,16)=1.,
   XUNIF_VEG(1,17)=1.,
   XUNIF_VEG(1,18)=1.,
   XUNIF_VEG(1,19)=1.,
   XUNIF_VEG(1,20)=1.,
   XUNIF_VEG(1,21)=1.,
   XUNIF_VEG(1,22)=1.,
   XUNIF_VEG(1,23)=1.,
   XUNIF_VEG(1,24)=1.,
   XUNIF_VEG(1,25)=1.,
   XUNIF_VEG(1,26)=1.,
   XUNIF_VEG(1,27)=1.,
   XUNIF_VEG(1,28)=1.,
   XUNIF_VEG(1,29)=1.,
   XUNIF_VEG(1,30)=1.,
   XUNIF_VEG(1,31)=1.,
   XUNIF_VEG(1,32)=1.,
   XUNIF_VEG(1,33)=1.,
   XUNIF_VEG(1,34)=1.,
   XUNIF_VEG(1,35)=1.,
   XUNIF_VEG(1,36)=1.,
   XUNIF_VEGTYPE(1)=0.,
   XUNIF_VEGTYPE(2)=0.,
   XUNIF_VEGTYPE(3)=0.,
   XUNIF_VEGTYPE(4)=0.,
   XUNIF_VEGTYPE(5)=0.,
   XUNIF_VEGTYPE(6)=0.,
   XUNIF_VEGTYPE(7)=0.,
   XUNIF_VEGTYPE(8)=0.,
   XUNIF_VEGTYPE(9)=0.,
   XUNIF_VEGTYPE(10)=1.,
   XUNIF_VEGTYPE(11)=0.,
   XUNIF_VEGTYPE(12)=0.,
   XUNIF_VEGTYPE(13)=0.,
   XUNIF_VEGTYPE(14)=0.,
   XUNIF_VEGTYPE(15)=0.,
   XUNIF_VEGTYPE(16)=0.,
   XUNIF_VEGTYPE(17)=0.,
   XUNIF_VEGTYPE(18)=0.,
   XUNIF_VEGTYPE(19)=0.,
   XUNIF_WRMAX_CF(1)=0.2,
   XUNIF_Z0(1,1)=0.0025,
   XUNIF_Z0(1,2)=0.0025,
   XUNIF_Z0(1,3)=0.0025,
   XUNIF_Z0(1,4)=0.0025,
   XUNIF_Z0(1,5)=0.0025,
   XUNIF_Z0(1,6)=0.0025,
   XUNIF_Z0(1,7)=0.0025,
   XUNIF_Z0(1,8)=0.0025,
   XUNIF_Z0(1,9)=0.0025,
   XUNIF_Z0(1,10)=0.0026190475,
   XUNIF_Z0(1,11)=0.003,
   XUNIF_Z0(1,12)=0.0036428575,
   XUNIF_Z0(1,13)=0.005285715,
   XUNIF_Z0(1,14)=0.0100714275,
   XUNIF_Z0(1,15)=0.018,
   XUNIF_Z0(1,16)=0.0278928575,
   XUNIF_Z0(1,17)=0.03425,
   XUNIF_Z0(1,18)=0.0370714275,
   XUNIF_Z0(1,19)=0.0366785725,
   XUNIF_Z0(1,20)=0.036285715,
   XUNIF_Z0(1,21)=0.0358928575,
   XUNIF_Z0(1,22)=0.0355,
   XUNIF_Z0(1,23)=0.0351071425,
   XUNIF_Z0(1,24)=0.034714285,
   XUNIF_Z0(1,25)=0.0343214275,
   XUNIF_Z0(1,26)=0.0330714275,
   XUNIF_Z0(1,27)=0.03025,
   XUNIF_Z0(1,28)=0.0258571425,
   XUNIF_Z0(1,29)=0.0208452375,
   XUNIF_Z0(1,30)=0.0160952375,
   XUNIF_Z0(1,31)=0.0116071425,
   XUNIF_Z0(1,32)=0.00752381,
   XUNIF_Z0(1,33)=0.00475,
   XUNIF_Z0(1,34)=0.003285715,
   XUNIF_Z0(1,35)=0.0028928575,
   XUNIF_Z0(1,36)=0.0026309525,
   XUNIF_Z0LITTER(1,1)=0.001,
   XUNIF_Z0LITTER(1,2)=0.001,
   XUNIF_Z0LITTER(1,3)=0.001,
   XUNIF_Z0LITTER(1,4)=0.001,
   XUNIF_Z0LITTER(1,5)=0.001,
   XUNIF_Z0LITTER(1,6)=0.001,
   XUNIF_Z0LITTER(1,7)=0.001,
   XUNIF_Z0LITTER(1,8)=0.001,
   XUNIF_Z0LITTER(1,9)=0.001,
   XUNIF_Z0LITTER(1,10)=0.001,
   XUNIF_Z0LITTER(1,11)=0.001,
   XUNIF_Z0LITTER(1,12)=0.001,
   XUNIF_Z0LITTER(1,13)=0.001,
   XUNIF_Z0LITTER(1,14)=0.001,
   XUNIF_Z0LITTER(1,15)=0.001,
   XUNIF_Z0LITTER(1,16)=0.001,
   XUNIF_Z0LITTER(1,17)=0.001,
   XUNIF_Z0LITTER(1,18)=0.001,
   XUNIF_Z0LITTER(1,19)=0.001,
   XUNIF_Z0LITTER(1,20)=0.001,
   XUNIF_Z0LITTER(1,21)=0.001,
   XUNIF_Z0LITTER(1,22)=0.001,
   XUNIF_Z0LITTER(1,23)=0.001,
   XUNIF_Z0LITTER(1,24)=0.001,
   XUNIF_Z0LITTER(1,25)=0.001,
   XUNIF_Z0LITTER(1,26)=0.001,
   XUNIF_Z0LITTER(1,27)=0.001,
   XUNIF_Z0LITTER(1,28)=0.001,
   XUNIF_Z0LITTER(1,29)=0.001,
   XUNIF_Z0LITTER(1,30)=0.001,
   XUNIF_Z0LITTER(1,31)=0.001,
   XUNIF_Z0LITTER(1,32)=0.001,
   XUNIF_Z0LITTER(1,33)=0.001,
   XUNIF_Z0LITTER(1,34)=0.001,
   XUNIF_Z0LITTER(1,35)=0.001,
   XUNIF_Z0LITTER(1,36)=0.001,
   XUNIF_Z0_O_Z0H(1)=10.,
 /
 &NAM_DIAG_ISBAN
   LPGD=.TRUE.,
   LPROSNOW=.TRUE.,
   LSURF_EVAP_BUDGET=.TRUE.,
   LSURF_MISC_BUDGET=.TRUE.,
   LVOLUMETRIC_SNOWLIQ=.TRUE.,
   LWATER_BUDGET=.TRUE.,
 /
 &NAM_DIAG_SURFN
   LCOEF=.FALSE.,
   LRAD_BUDGET=.TRUE.,
   LSURF_BUDGET=.TRUE.,
   LSURF_BUDGETC=.TRUE.,
   LSURF_VARS=.FALSE.,
   N2M=0,
 /
 &NAM_DIAG_SURF_ATMN
   LFRAC=.FALSE.,
 /
 &NAM_DIAG_TEBN
   LSURF_MISC_BUDGET=.FALSE.,
 /
 &NAM_FRAC
   LECOCLIMAP=.FALSE.,
   XUNIF_NATURE=1.,
   XUNIF_SEA=0.,
   XUNIF_TOWN=0.,
   XUNIF_WATER=0.,
 /
 &NAM_IO_OFFLINE
   CFORCING_FILETYPE='NETCDF',
   CSURF_FILETYPE='NC ',
   CTIMESERIES_FILETYPE='NETCDF',
   LPRINT=.TRUE.,
   LRESTART=.TRUE.,
   LWRITE_COORD=.TRUE.,
   NOUTPUT_NETCDF=4,
   XTSTEP_OUTPUT=86400.,
   XTSTEP_SURF=900.,
 /
 &NAM_ISBA
   CISBA='DIF',
   CPHOTO='NON',
   LMEB=.TRUE.,
   NGROUND_LAYER=20,
   NPATCH=1,
   XSOILGRID=0.01,0.03,0.06,0.1,0.2,0.3,0.45,0.6,0.8,1.,1.25,1.5,2.,2.5,3.,4.,5.,6.5,8.,10.,
   XUNIF_CLAY=0.3,
   XUNIF_RUNOFFB=0.5,
   XUNIF_SAND=0.6,
   XUNIF_SOC_SUB=1.9,
   XUNIF_SOC_TOP=7.2,
 /
 &NAM_ISBAN
   CCPSURF='DRY',
   CDIFSFCOND='DEF ',
   CSCOND='PL98',
   CSNOWRES='RIL',
   CSOILFRZ='LWT',
   XCVHEATF=0.2,
 /
 &NAM_ISBA_SNOWN
   CSNOWDRIFT='VI13',
   CSNOWMETAMO='B21',
   CSNOWRAD='B92',
   LSNOWDRIFT_SUBLIM=.FALSE.,
   LSNOW_ABS_ZENITH=.FALSE.,
 /
 &NAM_LONLATVAL
   NPOINTS=1,
   XDX=0.5,
   XDY=0.5,
   XX=5.77,
   XY=45.3,
 /
 &NAM_MEB_ISBA
   LFORC_MEASURE=.TRUE.,
   LMEB_LITTER=.TRUE.,
   LMEB_PATCH=.TRUE.,
 /
 &NAM_PGD_GRID
   CGRID='LONLATVAL',
 /
 &NAM_PGD_SCHEMES
   CNATURE='ISBA  ',
   CSEA='SEAFLX',
   CTOWN='TEB   ',
   CWATER='WATFLX',
 /
 &NAM_PREP_ISBA
   CFILE_TG='init_TG.nc',
   CTYPE_TG='NETCDF',
   NINFILES=20,
   XUNIF_HUG_SOIL=0.1,0.1,0.1,0.1,0.1,0.1,0.1,0.1,0.1,0.1,0.1,0.1,0.1,0.1,0.1,0.1,0.1,0.1,0.1,0.1,
 /
 &NAM_PREP_ISBA_SNOW
   CSNOW='CRO',
   LSNOW_FRAC_TOT=.TRUE.,
   NSNOW_LAYER=50,
 /
 &NAM_PREP_SURF_ATM
   NDAY=1,
   NMONTH=8,
   NYEAR=1993,
   XTIME=21600.,
 /
 &NAM_SGH_ISBAN
   CKSAT='DEF',
   CRUNOFF='DT92',
   LSOC=.FALSE.,
 /
 &NAM_SURF_ATM
   LNOSOF=.TRUE.,
   LSLOPE=.TRUE.,
   LVERTSHIFT=.FALSE.,
 /
 &NAM_SURF_SNOW_CSTS
   XALBICE1=0.38,
   XALBICE2=0.23,
   XALBICE3=0.08,
   XRHOTHRESHOLD_ICE=850.,
   XVAGING_GLACIER=900.,
   XVAGING_NOGLACIER=60.,
   XZ0ICEZ0SNOW=10.,
   X_RI_MAX=0.026,
 /
 &NAM_WRITE_DIAG_SURFN
   CSELECT='time','ZS','aspect','slope','massif_num','station','TG1','WG1','WGI1','TG4',
   'RAINF_ISBA','DRAIN_ISBA','RUNOFF_ISBA','TALB_ISBA','TS_ISBA',
   'WSN_T_ISBA','DSN_T_ISBA','EVAP_ISBA','SNOMLT_ISBA',
   'SD_1DY_ISBA','SD_3DY_ISBA','SD_5DY_ISBA','SD_7DY_ISBA','SWE_1DY_ISBA','SWE_3DY_ISBA','SWE_5DY_ISBA','SWE_7DY_ISBA',
   'RAMSOND_ISBA','WET_TH_ISBA','REFRZTH_ISBA',
   'RN_ISBA','LE_ISBA','H_ISBA','GFLUX_ISBA',
   'SWD_ISBA','SWU_ISBA','LWD_ISBA','LWU_ISBA',
   'NAT_LEV','AVA_TYP','ACC_LEV','DEP_HIG','DEP_MOD',  
   LPROVAR_TO_DIAG=.TRUE.,
   LRESETCUMUL=.TRUE.,
   LSELECT=.TRUE.,
   LSNOWDIMNC=.TRUE.,
 /
 &NAM_WRITE_SURF_ATM
   LSPLIT_PATCH=.FALSE.,
 /
 &NAM_ZS
   LIMP_ZS=.TRUE.,
   YSLOPE='FORCING.nc',
   YSLOPEFILETYPE='NETCDF',
   YZS='FORCING.nc',
   YZSFILETYPE='NETCDF',
 /
