&NAM_ISBA              
                       LMEB = .TRUE.                      ,
                       XUNIF_CLAY    = 0.30          ,
                       XUNIF_SAND    = 0.60          ,
                       XUNIF_RUNOFFB = 0.5           ,
                       CISBA         = 'DIF'         ,
                       CPHOTO        = 'NON'         ,
                       NPATCH        = 1             ,
                       NGROUND_LAYER = 19            ,
                       XSOILGRID     = 0.01,0.04,0.065,0.105,0.195,0.405,0.5,0.7,1.00,1.3,1.60,2.00,2.50,3.00,4.00,5.00,6.50,8.00,10.0                       
/
&NAM_MEB_ISBA          LMEB_PATCH          = .TRUE.,
                       LMEB_LITTER         = .TRUE.,
                       LFORC_MEASURE       = .TRUE.,
                       LMEB_TALL_VEG       = .TRUE.,
                       LMEB_INT_PHASE_LUN  = .TRUE.,
                       LMEB_INT_UNLOAD_LUN = .TRUE.,
                       LMEB_INT_UNLOAD_SFC = .TRUE.,
/
&NAM_ISBAn             CSCOND       = 'PL98'	,
                       CSOILFRZ     = 'LWT'	,
                       CDIFSFCOND   = 'DEF '	,
                       CSNOWRES     = 'RIL'	,
                       CCPSURF      = 'DRY'   ,
                       XCVHEATF     = 0.6      
/
&NAM_SGH_ISBAn         CRUNOFF    = "DT92"
/
&NAM_DATA_ISBA         NTIME = 12 ,
                       XUNIF_VEGTYPE(1)     = 0.,
                       XUNIF_VEGTYPE(2)     = 0.,
                       XUNIF_VEGTYPE(3)     = 0.,
                       XUNIF_VEGTYPE(4)     = 0.,
                       XUNIF_VEGTYPE(5)     = 1.,
                       XUNIF_VEGTYPE(6)     = 0.,
                       XUNIF_VEGTYPE(7)     = 0.,
                       XUNIF_VEGTYPE(8)     = 0.,
                       XUNIF_VEGTYPE(9)     = 0.,
                       XUNIF_VEGTYPE(10)    = 0.,
                       XUNIF_VEGTYPE(11)    = 0.,
                       XUNIF_VEGTYPE(12)    = 0.,
                       XUNIF_VEGTYPE(13)    = 0.,
                       XUNIF_VEGTYPE(14)     = 0.,
                       XUNIF_VEGTYPE(15)     = 0.,
                       XUNIF_VEGTYPE(16)     = 0.,
                       XUNIF_VEGTYPE(17)     = 0.,
                       XUNIF_VEGTYPE(18)     = 0.,
                       XUNIF_VEGTYPE(19)     = 0., 
                       XUNIF_H_VEG(1,1)      = 35.,
                       XUNIF_H_VEG(1,2)      = 35.,
                       XUNIF_H_VEG(1,3)      = 35.,
                       XUNIF_H_VEG(1,4)      = 35.,
                       XUNIF_H_VEG(1,5)      = 35.,
                       XUNIF_H_VEG(1,6)      = 35.,
                       XUNIF_H_VEG(1,7)      = 35.,
                       XUNIF_H_VEG(1,8)      = 35.,
                       XUNIF_H_VEG(1,9)      = 35.,
                       XUNIF_H_VEG(1,10)     = 35.,
                       XUNIF_H_VEG(1,11)     = 35.,
                       XUNIF_H_VEG(1,12)     = 35.,
                       XUNIF_GNDLITTER(1,1)        = 0.04,
                       XUNIF_GNDLITTER(1,2)        = 0.04,
                       XUNIF_GNDLITTER(1,3)        = 0.04,
                       XUNIF_GNDLITTER(1,4)        = 0.04,
                       XUNIF_GNDLITTER(1,5)        = 0.04,
                       XUNIF_GNDLITTER(1,6)        = 0.04,
                       XUNIF_GNDLITTER(1,7)        = 0.04,
                       XUNIF_GNDLITTER(1,8)        = 0.04,
                       XUNIF_GNDLITTER(1,9)        = 0.04,
                       XUNIF_GNDLITTER(1,10)       = 0.04,
                       XUNIF_GNDLITTER(1,11)       = 0.04,
                       XUNIF_GNDLITTER(1,12)       = 0.04,
                       XUNIF_Z0LITTER(1,1)        = 0.025,
                       XUNIF_Z0LITTER(1,2)        = 0.025,
                       XUNIF_Z0LITTER(1,3)        = 0.025,
                       XUNIF_Z0LITTER(1,4)        = 0.025,
                       XUNIF_Z0LITTER(1,5)        = 0.025,
                       XUNIF_Z0LITTER(1,6)        = 0.025,
                       XUNIF_Z0LITTER(1,7)        = 0.025,
                       XUNIF_Z0LITTER(1,8)        = 0.025,                                             
                       XUNIF_Z0LITTER(1,9)        = 0.025,
                       XUNIF_Z0LITTER(1,10)       = 0.025,
                       XUNIF_Z0LITTER(1,11)       = 0.025,
                       XUNIF_Z0LITTER(1,12)       = 0.025,
                       XUNIF_LAIMIN(1)      = 0.1,
                       XUNIF_BSLAI(1)       = 0.025,
                       XUNIF_SEFOLD(1)      = 31536000.,
                       XUNIF_VEG(1,1)       = 1.0 ,
                       XUNIF_VEG(1,2)       = 1.0 ,
                       XUNIF_VEG(1,3)       = 1.0 ,
                       XUNIF_VEG(1,4)       = 1.0 ,
                       XUNIF_VEG(1,5)       = 1.0 ,
                       XUNIF_VEG(1,6)       = 1.0 ,
                       XUNIF_VEG(1,7)       = 1.0 ,
                       XUNIF_VEG(1,8)       = 1.0 ,
                       XUNIF_VEG(1,9)       = 1.0 ,
                       XUNIF_VEG(1,10)      = 1.0 ,
                       XUNIF_VEG(1,11)      = 1.0 ,
                       XUNIF_VEG(1,12)      = 1.0 ,
                       XUNIF_LAI(1,1)       = 4.,
                       XUNIF_LAI(1,2)       = 4.,
                       XUNIF_LAI(1,3)       = 4.,
                       XUNIF_LAI(1,4)       = 4.,
                       XUNIF_LAI(1,5)       = 4.,
                       XUNIF_LAI(1,6)       = 4.,
                       XUNIF_LAI(1,7)       = 4.,
                       XUNIF_LAI(1,8)       = 4.,
                       XUNIF_LAI(1,9)       = 4.,
                       XUNIF_LAI(1,10)      = 4.,
                       XUNIF_LAI(1,11)      = 4.,
                       XUNIF_LAI(1,12)      = 4.,
                       XUNIF_Z0(1,1)        = 14.33 ,
                       XUNIF_Z0(1,2)        = 14.33 ,
                       XUNIF_Z0(1,3)        = 14.33 ,
                       XUNIF_Z0(1,4)        = 14.33 ,
                       XUNIF_Z0(1,5)        = 14.33 ,
                       XUNIF_Z0(1,6)        = 14.33 ,
                       XUNIF_Z0(1,7)        = 14.33 ,
                       XUNIF_Z0(1,8)        = 14.33 ,
                       XUNIF_Z0(1,9)        = 14.33 ,
                       XUNIF_Z0(1,10)       = 14.33 ,
                       XUNIF_Z0(1,11)       = 14.33 ,
                       XUNIF_Z0(1,12)       = 14.33 ,
                       XUNIF_EMIS(1,1)      = 0.98,
                       XUNIF_EMIS(1,2)      = 0.98,
                       XUNIF_EMIS(1,3)      = 0.98,
                       XUNIF_EMIS(1,4)      = 0.98,
                       XUNIF_EMIS(1,5)      = 0.98,
                       XUNIF_EMIS(1,6)      = 0.98,
                       XUNIF_EMIS(1,7)      = 0.98,
                       XUNIF_EMIS(1,8)      = 0.98,
                       XUNIF_EMIS(1,9)      = 0.98,
                       XUNIF_EMIS(1,10)     = 0.98,
                       XUNIF_EMIS(1,11)     = 0.98,
                       XUNIF_EMIS(1,12)     = 0.98,
                       XUNIF_RSMIN(1)       = 70.,
                       XUNIF_GAMMA(1)       = 0.04,
                       XUNIF_WRMAX_CF(1)    = 0.2,
                       XUNIF_RGL(1)         =  30.,
                       XUNIF_CV(1)          = 0.00002,
                       XUNIF_Z0_O_Z0H(1)    = 2.7,
                       XUNIF_ALBNIR_VEG(1,1)  = 0.14,
                       XUNIF_ALBNIR_VEG(1,2)  = 0.14,
                       XUNIF_ALBNIR_VEG(1,3)  = 0.14,
                       XUNIF_ALBNIR_VEG(1,4)  = 0.14,
                       XUNIF_ALBNIR_VEG(1,5)  = 0.14,
                       XUNIF_ALBNIR_VEG(1,6)  = 0.14,
                       XUNIF_ALBNIR_VEG(1,7)  = 0.14,
                       XUNIF_ALBNIR_VEG(1,8)  = 0.14,
                       XUNIF_ALBNIR_VEG(1,9)  = 0.14,
                       XUNIF_ALBNIR_VEG(1,10)  = 0.14,
                       XUNIF_ALBNIR_VEG(1,11)  = 0.14,
                       XUNIF_ALBNIR_VEG(1,12)  = 0.14,
                       XUNIF_ALBVIS_VEG(1,1)  = 0.14,
                       XUNIF_ALBVIS_VEG(1,2)  = 0.14,
                       XUNIF_ALBVIS_VEG(1,3)  = 0.14,
                       XUNIF_ALBVIS_VEG(1,4)  = 0.14,
                       XUNIF_ALBVIS_VEG(1,5)  = 0.14,
                       XUNIF_ALBVIS_VEG(1,6)  = 0.14,
                       XUNIF_ALBVIS_VEG(1,7)  = 0.14,
                       XUNIF_ALBVIS_VEG(1,8)  = 0.14,
                       XUNIF_ALBVIS_VEG(1,9)  = 0.14,
                       XUNIF_ALBVIS_VEG(1,10)  = 0.14,
                       XUNIF_ALBVIS_VEG(1,11)  = 0.14,
                       XUNIF_ALBVIS_VEG(1,12)  = 0.14,
                       XUNIF_ALBUV_VEG(1,1)   = 0.14,
                       XUNIF_ALBUV_VEG(1,2)   = 0.14,
                       XUNIF_ALBUV_VEG(1,3)   = 0.14,
                       XUNIF_ALBUV_VEG(1,4)   = 0.14,
                       XUNIF_ALBUV_VEG(1,5)   = 0.14,
                       XUNIF_ALBUV_VEG(1,6)   = 0.14,
                       XUNIF_ALBUV_VEG(1,7)   = 0.14,
                       XUNIF_ALBUV_VEG(1,8)   = 0.14,
                       XUNIF_ALBUV_VEG(1,9)   = 0.14,
                       XUNIF_ALBUV_VEG(1,10)   = 0.14,
                       XUNIF_ALBUV_VEG(1,11)   = 0.14,
                       XUNIF_ALBUV_VEG(1,12)   = 0.14,
                       XUNIF_ALBNIR_SOIL(1,1) = 0.14,
                       XUNIF_ALBNIR_SOIL(1,2) = 0.14,
                       XUNIF_ALBNIR_SOIL(1,3) = 0.14,
                       XUNIF_ALBNIR_SOIL(1,4) = 0.14,
                       XUNIF_ALBNIR_SOIL(1,5) = 0.14,
                       XUNIF_ALBNIR_SOIL(1,6) = 0.14,
                       XUNIF_ALBNIR_SOIL(1,7) = 0.14,
                       XUNIF_ALBNIR_SOIL(1,8) = 0.14,
                       XUNIF_ALBNIR_SOIL(1,9) = 0.14,
                       XUNIF_ALBNIR_SOIL(1,10) = 0.14,
                       XUNIF_ALBNIR_SOIL(1,11) = 0.14,
                       XUNIF_ALBNIR_SOIL(1,12) = 0.14,
                       XUNIF_ALBVIS_SOIL(1,1) = 0.14,
                       XUNIF_ALBVIS_SOIL(1,2) = 0.14,
                       XUNIF_ALBVIS_SOIL(1,3) = 0.14,
                       XUNIF_ALBVIS_SOIL(1,4) = 0.14,
                       XUNIF_ALBVIS_SOIL(1,5) = 0.14,
                       XUNIF_ALBVIS_SOIL(1,6) = 0.14,
                       XUNIF_ALBVIS_SOIL(1,7) = 0.14,
                       XUNIF_ALBVIS_SOIL(1,8) = 0.14,
                       XUNIF_ALBVIS_SOIL(1,9) = 0.14,
                       XUNIF_ALBVIS_SOIL(1,10) = 0.14,
                       XUNIF_ALBVIS_SOIL(1,11) = 0.14,
                       XUNIF_ALBVIS_SOIL(1,12) = 0.14,
                       XUNIF_ALBUV_SOIL(1,1)  = 0.14,
                       XUNIF_ALBUV_SOIL(1,2)  = 0.14,
                       XUNIF_ALBUV_SOIL(1,3)  = 0.14,
                       XUNIF_ALBUV_SOIL(1,4)  = 0.14,
                       XUNIF_ALBUV_SOIL(1,5)  = 0.14,
                       XUNIF_ALBUV_SOIL(1,6)  = 0.14,
                       XUNIF_ALBUV_SOIL(1,7)  = 0.14,
                       XUNIF_ALBUV_SOIL(1,8)  = 0.14,
                       XUNIF_ALBUV_SOIL(1,9)  = 0.14,
                       XUNIF_ALBUV_SOIL(1,10)  = 0.14,
                       XUNIF_ALBUV_SOIL(1,11)  = 0.14,
                       XUNIF_ALBUV_SOIL(1,12)  = 0.14,
                       XUNIF_GMES(1)        = 0.00264,
                       XUNIF_RE25(1)        = 0.0000003,
                       XUNIF_BSLAI(1)       = 0.08,
                       XUNIF_LAIMIN(1)      = 0.3,
                       XUNIF_SEFOLD(1)      = 12960000.,
                       XUNIF_GC(1)          = 0.00025,
                       XUNIF_DMAX(1)        = 0.045,
                       XUNIF_F2I(1)         = 0.334,
                       XUNIF_H_TREE(1)=35.,
		   XUNIF_H_TREE(2)=35.,
		   XUNIF_H_TREE(3)=35.,
		   XUNIF_H_TREE(4)=35.,
		   XUNIF_H_TREE(5)=35.,
		   XUNIF_H_TREE(6)=35.,
		   XUNIF_H_TREE(7)=35.,
		   XUNIF_H_TREE(8)=35.,
		   XUNIF_H_TREE(9)=35.,
		   XUNIF_H_TREE(10)=35.,
		   XUNIF_H_TREE(11)=35.,
		   XUNIF_H_TREE(12)=35.,   
		   XUNIF_H_TREE(13)=35.,
		   XUNIF_H_TREE(14)=35.,
		   XUNIF_H_TREE(15)=35.,
		   XUNIF_H_TREE(16)=35.,
		   XUNIF_H_TREE(17)=35.,
		   XUNIF_H_TREE(18)=35.,
		   XUNIF_H_TREE(19)=35.,
                       XUNIF_CE_NITRO(1)    = 4.83,
                       XUNIF_CF_NITRO(1)    = 2.53,
                       XUNIF_CNA_NITRO(1)   = 2.0,
                       XUNIF_ROOT_DEPTH     = 1.0,
                       XUNIF_GROUND_DEPTH   = 10.0,
                       XUNIF_ROOT_LIN       = 0.05,
                       XUNIF_ROOT_EXTINCTION = 0.943                       
/
&NAM_FRAC              LECOCLIMAP = .FALSE.,
                       XUNIF_SEA    = 0.,
                       XUNIF_WATER  = 0.,
                       XUNIF_TOWN   = 0.,
                       XUNIF_NATURE = 1.
/
&NAM_PGD_GRID          CGRID = 'LONLATVAL' 
/
&NAM_LONLATVAL
    XX = 5.77,
    XY = 45.3,
    XDX = 0.5,
    XDY = 0.5,
    NPOINTS = 1
/
&NAM_PGD_SCHEMES       CNATURE = 'ISBA  '    , 
                       CSEA    = 'SEAFLX'    , 
                       CTOWN   = 'TEB   '    , 
                       CWATER  = 'WATFLX' 
/
&NAM_ZS
    LIMP_ZS = .TRUE.  ,
    YZSFILETYPE = 'NETCDF' ,
    YZS = 'FORCING.nc',
    YSLOPE = 'FORCING.nc',
    YSLOPEFILETYPE='NETCDF'
/
&NAM_PREP_SURF_ATM 
                   NYEAR  = 2019,
                   NMONTH = 08,
                   NDAY   = 01,
                   XTIME  = 21600. 
/
&NAM_PREP_ISBA     XHUG_SURF = 1.0   , 
                   XHUG_ROOT = 1.0   , 
                   XHUG_DEEP = 1.0   , 
                   XTG_SURF  = 288.16,
                   XTG_ROOT  = 288.16,
                   XTG_DEEP  = 288.16
/
&NAM_PREP_ISBA_SNOW    CSNOW = 'CRO',
                       NSNOW_LAYER = 50, 
                       LSNOW_FRAC_TOT = .FALSE.
/
&NAM_IO_OFFLINE        LPRINT  		= .TRUE.       ,
                       CFORCING_FILETYPE 	= 'NETCDF'  	,
                       CSURF_FILETYPE 	= 'NC '  	,
                       CTIMESERIES_FILETYPE 	= 'NETCDF'   	,
                       LRESTART 		= .TRUE.     	,
                       XTSTEP_OUTPUT 		= 3600.         ,
                       XTSTEP_SURF 		= 900.
/
&NAM_DIAG_SURFn        LSURF_BUDGET = .TRUE. , 
                       LRAD_BUDGET=   .TRUE. ,
                       N2M          = 1      ,
                       LCOEF        = .FALSE.,
                       LSURF_VARS   = .FALSE., 
                       LSURF_BUDGETC = .TRUE.
/
&NAM_DIAG_SURF_ATMn    LFRAC        = .FALSE. 
/
&NAM_DIAG_ISBAn        LPGD              = .TRUE. , 
                       LSURF_EVAP_BUDGET = .TRUE. , 
                       LSURF_MISC_BUDGET = .TRUE. ,
                       LPROSNOW          = .TRUE. ,
                       LVOLUMETRIC_SNOWLIQ = .FALSE.
/
&NAM_DIAG_TEBn         LSURF_MISC_BUDGET = .FALSE. 
/
&NAM_SURF_ATM          LVERTSHIFT = .FALSE.,
                       LNOSOF = .TRUE.
/
&NAM_ISBA_SNOWn
  CSNOWDRIFT= 'NONE'
  LSNOWDRIFT_SUBLIM= .FALSE.
  LSNOW_ABS_ZENITH= .FALSE.
  CSNOWMETAMO= 'C13'
  CSNOWRAD= 'B92'
  CSNOWFALL= 'V12'
  CSNOWCOND= 'Y81'
  CSNOWHOLD= 'B92'
  CSNOWCOMP= 'B92'
  CSNOWZREF= 'CST'
/
&NAM_SURF_SNOW_CSTS
  XALBICE1=0.38
  XALBICE2=0.23
  XALBICE3=0.08
  XRHOTHRESHOLD_ICE=850.
  XZ0ICEZ0SNOW=10.
  XVAGING_GLACIER=900.
  XVAGING_NOGLACIER=60.
  XVVISC3=0.023
  X_RI_MAX=0.2
/
&NAM_SURF_CSTS
  XZ0SN=0.001
  XZ0HSN=0.0001
  XTAU_LW       = 0.5
/
&NAM_WRITE_SURF_ATM
  LSPLIT_PATCH = .FALSE.
/
&NAM_WRITE_DIAG_SURFn
  LPROVAR_TO_DIAG = .TRUE.
  LSNOWDIMNC = .TRUE.
  LRESETCUMUL = .TRUE.
  LSELECT= .TRUE.
  CSELECT='DSN_T_ISBA','WSN_T_ISBA','SNOWDZ','SNOWSSA','UNLOAD_ISBA','LES_CV_ISBA','MELT_CV_ISBA'
/
