 &NAM_COVER
   XRM_COVER=0.01,
   YCOVER='ECOCLIMAP_II_EUROP',
   YCOVERFILETYPE='DIRECT',
 /
 &NAM_DIAG_ISBAN
   LPGD=.TRUE.,
   LPROSNOW=.TRUE.,
   LSURF_EVAP_BUDGET=.TRUE.,
   LSURF_MISC_BUDGET=.TRUE.,
   LVOLUMETRIC_SNOWLIQ=.TRUE.,
   LWATER_BUDGET=.TRUE.,
 /
 &NAM_DIAG_SURFN
   LCOEF=.FALSE.,
   LSURF_BUDGET=.TRUE.,
   LSURF_BUDGETC=.TRUE.,
   LSURF_VARS=.FALSE.,
   N2M=1,
 /
 &NAM_DIAG_SURF_ATMN
   LFRAC=.FALSE.,
 /
 &NAM_DIAG_TEBN
   LSURF_MISC_BUDGET=.FALSE.,
 /
 &NAM_ECOCLIMAP2
   LCLIM_LAI=.TRUE.,
 /
 &NAM_ENS
   NENS=35,
 /
 &NAM_FRAC
   LECOCLIMAP=.TRUE.,
 /
 &NAM_IGN
   CLAMBERT='L93',
   NCOLS=5,
   NROWS=3,
   XCELLSIZE=250,
   XX_LLCORNER=569536,
   XY_LLCORNER=6186718,
 /
 &NAM_IO_OFFLINE
   CFORCING_FILETYPE='NETCDF',
   CSURF_FILETYPE='NC ',
   CTIMESERIES_FILETYPE='NETCDF',
   LDELAYEDSTART_NC=.TRUE.,
   LPRINT=.TRUE.,
   LRESTART=.TRUE.,
   LSHADOWS_OTHER=.TRUE.,
   LSHADOWS_SLOPE=.TRUE.,
   LWRITE_COORD=.FALSE.,
   LWRITE_TOPO=.FALSE.,
   NB_READ_FORC=1,
   NOUTPUT_NETCDF=4,
   XTSTEP_OUTPUT=21600.,
   XTSTEP_SURF=900.,
 /
 &NAM_ISBA
   CALBEDO='MEAN',
   CISBA='DIF',
   CPHOTO='NON',
   NGROUND_LAYER=20,
   NPATCH=1,
   XSOILGRID=0.01,0.03,0.06,0.1,0.2,0.3,0.45,0.6,0.8,1.,1.25,1.5,2.,2.5,3.,4.,5.,6.5,8.,10.,
   XUNIF_RUNOFFB=0.5,
   YCLAY='CLAY_HWSD_MOY',
   YCLAYFILETYPE='DIRECT',
   YSAND='SAND_HWSD_MOY',
   YSANDFILETYPE='DIRECT',
 /
 &NAM_ISBAN
   CCPSURF='DRY',
   CDIFSFCOND='DEF ',
   CSCOND='PL98',
   CSNOWRES='RIL',
   CSOILFRZ='LWT',
   XCVHEATF=0.6,
 /
 &NAM_ISBA_SNOWN
   CSNOWDRIFT='VI13',
   CSNOWMETAMO='B21',
   CSNOWRAD='B92',
   LSNOWDRIFT_SUBLIM=.FALSE.,
   LSNOW_ABS_ZENITH=.FALSE.,
 /
 &NAM_PGD_ARRANGE_COVER
   LTOWN_TO_ROCK=.TRUE.,
   LWATER_TO_NATURE=.TRUE.,
 /
 &NAM_PGD_GRID
   CGRID='IGN',
 /
 &NAM_PGD_SCHEMES
   CNATURE='ISBA  ',
   CSEA='NONE',
   CTOWN='NONE ',
   CWATER='NONE',
 /
 &NAM_PREP_ISBA
   CFILE_TG='init_TG.nc',
   CTYPE_TG='NETCDF',
   NINFILES=20,
   XUNIF_HUG_SOIL=0.1,0.1,0.1,0.1,0.1,0.1,0.1,0.1,0.1,0.1,0.1,0.1,0.1,0.1,0.1,0.1,0.1,0.1,0.1,0.1,
 /
 &NAM_PREP_ISBA_SNOW
   CSNOW='CRO',
   LSNOW_FRAC_TOT=.TRUE.,
 /
 &NAM_PREP_SURF_ATM
   NDAY=1,
   NMONTH=8,
   NYEAR=2014,
   XTIME=21600.,
 /
 &NAM_SGH_ISBAN
   CRUNOFF='DT92',
 /
 &NAM_SURF_ATM
   LNOSOF=.TRUE.,
   LSLOPE=.TRUE.,
   LVERTSHIFT=.FALSE.,
 /
 &NAM_SURF_SNOW_CSTS
   XALBICE1=0.38,
   XALBICE2=0.23,
   XALBICE3=0.08,
   XRHOTHRESHOLD_ICE=850.,
   XVAGING_GLACIER=900.,
   XVAGING_NOGLACIER=60.,
   XZ0ICEZ0SNOW=10.,
   X_RI_MAX=0.026,
 /
 &NAM_WRITE_DIAG_SURFN
   CSELECT = 'time','ZS','aspect','slope','massif_num','station',
  
   'TG1','WG1','WGI1','TG4','ASN_VEG','TALB_ISBA','TS_ISBA','WSN_T_ISBA','DSN_T_ISBA',
   'SD_1DY_ISBA','SD_3DY_ISBA','SD_5DY_ISBA','SD_7DY_ISBA','SWE_1DY_ISBA',
   'SWE_3DY_ISBA','SWE_5DY_ISBA','SWE_7DY_ISBA','RAMSOND_ISBA','WET_TH_ISBA',
   'REFRZTH_ISBA','NAT_LEV','AVA_TYP','ACC_LEV','DEP_HIG','DEP_MOD',

   'RN_ISBA','H_ISBA','LE_ISBA','GFLUX_ISBA','DRAIN_ISBA','RAINF_ISBA',
   'SNOWF_ISBA','RUNOFF_ISBA','EVAP_ISBA','SNOMLT_ISBA','SWD_ISBA','SWU_ISBA',
   'LWD_ISBA','LWU_ISBA',
  
   'SNOWDZ','SNOWDEND','SNOWSPHER','SNOWSIZE','SNOWSSA','SNOWTYPE','SNOWRAM',
   'SNOWSHEAR','SNOWTEMP','SNOWLIQ','SAG_VEG','WSN_VEG','RSN_VEG','HSN_VEG',
   LPROVAR_TO_DIAG=.TRUE.,
   LRESETCUMUL=.TRUE.,
   LSELECT=.FALSE.,
   LSNOWDIMNC=.TRUE.,
 /
 &NAM_WRITE_SURF_ATM
   LSPLIT_PATCH=.FALSE.,
 /
 &NAM_ZS
   LEXPLICIT_SLOPE=.TRUE.,
   LIMP_ZS=.TRUE.,
   YZS='FORCING.nc',
   YZSFILETYPE='NETCDF',
 /
 &NAM_ZS_FILTER
   NZSFILTER=0,
 /
