 &NAM_DATA_ISBA
   NTIME=12,
   XUNIF_ALBNIR_SOIL(1,1)=0.2,
   XUNIF_ALBNIR_SOIL(1,2)=0.2,
   XUNIF_ALBNIR_SOIL(1,3)=0.2,
   XUNIF_ALBNIR_SOIL(1,4)=0.2,
   XUNIF_ALBNIR_SOIL(1,5)=0.2,
   XUNIF_ALBNIR_SOIL(1,6)=0.2,
   XUNIF_ALBNIR_SOIL(1,7)=0.2,
   XUNIF_ALBNIR_SOIL(1,8)=0.2,
   XUNIF_ALBNIR_SOIL(1,9)=0.2,
   XUNIF_ALBNIR_SOIL(1,10)=0.2,
   XUNIF_ALBNIR_SOIL(1,11)=0.2,
   XUNIF_ALBNIR_SOIL(1,12)=0.2,
   XUNIF_ALBNIR_VEG(1,1)=0.2,
   XUNIF_ALBNIR_VEG(1,2)=0.2,
   XUNIF_ALBNIR_VEG(1,3)=0.2,
   XUNIF_ALBNIR_VEG(1,4)=0.2,
   XUNIF_ALBNIR_VEG(1,5)=0.2,
   XUNIF_ALBNIR_VEG(1,6)=0.2,
   XUNIF_ALBNIR_VEG(1,7)=0.2,
   XUNIF_ALBNIR_VEG(1,8)=0.2,
   XUNIF_ALBNIR_VEG(1,9)=0.2,
   XUNIF_ALBNIR_VEG(1,10)=0.2,
   XUNIF_ALBNIR_VEG(1,11)=0.2,
   XUNIF_ALBNIR_VEG(1,12)=0.2,
   XUNIF_ALBUV_SOIL(1,1)=0.2,
   XUNIF_ALBUV_SOIL(1,2)=0.2,
   XUNIF_ALBUV_SOIL(1,3)=0.2,
   XUNIF_ALBUV_SOIL(1,4)=0.2,
   XUNIF_ALBUV_SOIL(1,5)=0.2,
   XUNIF_ALBUV_SOIL(1,6)=0.2,
   XUNIF_ALBUV_SOIL(1,7)=0.2,
   XUNIF_ALBUV_SOIL(1,8)=0.2,
   XUNIF_ALBUV_SOIL(1,9)=0.2,
   XUNIF_ALBUV_SOIL(1,10)=0.2,
   XUNIF_ALBUV_SOIL(1,11)=0.2,
   XUNIF_ALBUV_SOIL(1,12)=0.2,
   XUNIF_ALBUV_VEG(1,1)=0.2,
   XUNIF_ALBUV_VEG(1,2)=0.2,
   XUNIF_ALBUV_VEG(1,3)=0.2,
   XUNIF_ALBUV_VEG(1,4)=0.2,
   XUNIF_ALBUV_VEG(1,5)=0.2,
   XUNIF_ALBUV_VEG(1,6)=0.2,
   XUNIF_ALBUV_VEG(1,7)=0.2,
   XUNIF_ALBUV_VEG(1,8)=0.2,
   XUNIF_ALBUV_VEG(1,9)=0.2,
   XUNIF_ALBUV_VEG(1,10)=0.2,
   XUNIF_ALBUV_VEG(1,11)=0.2,
   XUNIF_ALBUV_VEG(1,12)=0.2,
   XUNIF_ALBVIS_SOIL(1,1)=0.2,
   XUNIF_ALBVIS_SOIL(1,2)=0.2,
   XUNIF_ALBVIS_SOIL(1,3)=0.2,
   XUNIF_ALBVIS_SOIL(1,4)=0.2,
   XUNIF_ALBVIS_SOIL(1,5)=0.2,
   XUNIF_ALBVIS_SOIL(1,6)=0.2,
   XUNIF_ALBVIS_SOIL(1,7)=0.2,
   XUNIF_ALBVIS_SOIL(1,8)=0.2,
   XUNIF_ALBVIS_SOIL(1,9)=0.2,
   XUNIF_ALBVIS_SOIL(1,10)=0.2,
   XUNIF_ALBVIS_SOIL(1,11)=0.2,
   XUNIF_ALBVIS_SOIL(1,12)=0.2,
   XUNIF_ALBVIS_VEG(1,1)=0.2,
   XUNIF_ALBVIS_VEG(1,2)=0.2,
   XUNIF_ALBVIS_VEG(1,3)=0.2,
   XUNIF_ALBVIS_VEG(1,4)=0.2,
   XUNIF_ALBVIS_VEG(1,5)=0.2,
   XUNIF_ALBVIS_VEG(1,6)=0.2,
   XUNIF_ALBVIS_VEG(1,7)=0.2,
   XUNIF_ALBVIS_VEG(1,8)=0.2,
   XUNIF_ALBVIS_VEG(1,9)=0.2,
   XUNIF_ALBVIS_VEG(1,10)=0.2,
   XUNIF_ALBVIS_VEG(1,11)=0.2,
   XUNIF_ALBVIS_VEG(1,12)=0.2,
   XUNIF_BSLAI(1)=0.08,
   XUNIF_CE_NITRO(1)=5.56,
   XUNIF_CF_NITRO(1)=6.73,
   XUNIF_CNA_NITRO(1)=1.3,
   XUNIF_CV(1)=0.00002,
   XUNIF_DMAX(1)=0.05,
   XUNIF_EMIS(1,1)=0.97,
   XUNIF_EMIS(1,2)=0.97,
   XUNIF_EMIS(1,3)=0.97,
   XUNIF_EMIS(1,4)=0.97,
   XUNIF_EMIS(1,5)=0.97,
   XUNIF_EMIS(1,6)=0.97,
   XUNIF_EMIS(1,7)=0.97,
   XUNIF_EMIS(1,8)=0.97,
   XUNIF_EMIS(1,9)=0.97,
   XUNIF_EMIS(1,10)=0.97,
   XUNIF_EMIS(1,11)=0.97,
   XUNIF_EMIS(1,12)=0.97,
   XUNIF_F2I(1)=0.3,
   XUNIF_GAMMA(1)=0.04,
   XUNIF_GC(1)=0.00025,
   XUNIF_GMES(1)=0.001,
   XUNIF_GROUND_DEPTH=10.,
   XUNIF_H_TREE(1)=20.,
   XUNIF_LAI(1,1)=1.,
   XUNIF_LAI(1,2)=1.,
   XUNIF_LAI(1,3)=1.,
   XUNIF_LAI(1,4)=1.,
   XUNIF_LAI(1,5)=1.,
   XUNIF_LAI(1,6)=1.,
   XUNIF_LAI(1,7)=1.,
   XUNIF_LAI(1,8)=1.,
   XUNIF_LAI(1,9)=1.,
   XUNIF_LAI(1,10)=1.,
   XUNIF_LAI(1,11)=1.,
   XUNIF_LAI(1,12)=1.,
   XUNIF_LAIMIN(1)=0.3,
   XUNIF_RE25(1)=1.8D-7,
   XUNIF_RGL(1)=30.,
   XUNIF_ROOT_DEPTH=1.,
   XUNIF_ROOT_EXTINCTION=0.943,
   XUNIF_ROOT_LIN=0.05,
   XUNIF_RSMIN(1)=40.,
   XUNIF_SEFOLD(1)=12960000.,
   XUNIF_VEG(1,1)=1.,
   XUNIF_VEG(1,2)=1.,
   XUNIF_VEG(1,3)=1.,
   XUNIF_VEG(1,4)=1.,
   XUNIF_VEG(1,5)=1.,
   XUNIF_VEG(1,6)=1.,
   XUNIF_VEG(1,7)=1.,
   XUNIF_VEG(1,8)=1.,
   XUNIF_VEG(1,9)=1.,
   XUNIF_VEG(1,10)=1.,
   XUNIF_VEG(1,11)=1.,
   XUNIF_VEG(1,12)=1.,
   XUNIF_VEGTYPE(1)=0.,
   XUNIF_VEGTYPE(2)=0.,
   XUNIF_VEGTYPE(3)=0.,
   XUNIF_VEGTYPE(4)=0.,
   XUNIF_VEGTYPE(5)=0.,
   XUNIF_VEGTYPE(6)=0.,
   XUNIF_VEGTYPE(7)=0.,
   XUNIF_VEGTYPE(8)=0.,
   XUNIF_VEGTYPE(9)=0.,
   XUNIF_VEGTYPE(10)=1.,
   XUNIF_VEGTYPE(11)=0.,
   XUNIF_VEGTYPE(12)=0.,
   XUNIF_VEGTYPE(13)=0.,
   XUNIF_VEGTYPE(14)=0.,
   XUNIF_VEGTYPE(15)=0.,
   XUNIF_VEGTYPE(16)=0.,
   XUNIF_VEGTYPE(17)=0.,
   XUNIF_VEGTYPE(18)=0.,
   XUNIF_VEGTYPE(19)=0.,
   XUNIF_WRMAX_CF(1)=0.2,
   XUNIF_Z0(1,1)=0.005,
   XUNIF_Z0(1,2)=0.005,
   XUNIF_Z0(1,3)=0.005,
   XUNIF_Z0(1,4)=0.005,
   XUNIF_Z0(1,5)=0.005,
   XUNIF_Z0(1,6)=0.005,
   XUNIF_Z0(1,7)=0.005,
   XUNIF_Z0(1,8)=0.005,
   XUNIF_Z0(1,9)=0.005,
   XUNIF_Z0(1,10)=0.005,
   XUNIF_Z0(1,11)=0.005,
   XUNIF_Z0(1,12)=0.005,
   XUNIF_Z0_O_Z0H(1)=10.,
 /
 &NAM_DIAG_ISBAN
   LPGD=.TRUE.,
   LPROSNOW=.TRUE.,
   LSURF_EVAP_BUDGET=.TRUE.,
   LSURF_MISC_BUDGET=.TRUE.,
   LVOLUMETRIC_SNOWLIQ=.TRUE.,
   LWATER_BUDGET=.TRUE.,
 /
 &NAM_DIAG_SURFN
   LCOEF=.FALSE.,
   LRAD_BUDGET=.TRUE.,
   LSURF_BUDGET=.TRUE.,
   LSURF_BUDGETC=.TRUE.,
   LSURF_VARS=.FALSE.,
   N2M=0,
 /
 &NAM_DIAG_SURF_ATMN
   LFRAC=.FALSE.,
 /
 &NAM_DIAG_TEBN
   LSURF_MISC_BUDGET=.FALSE.,
 /
 &NAM_FRAC
   LECOCLIMAP=.FALSE.,
   XUNIF_NATURE=1.,
   XUNIF_SEA=0.,
   XUNIF_TOWN=0.,
   XUNIF_WATER=0.,
 /
 &NAM_IO_OFFLINE
   CFORCING_FILETYPE='NETCDF',
   CSURF_FILETYPE='NC ',
   CTIMESERIES_FILETYPE='NETCDF',
   LPRINT=.TRUE.,
   LRESTART=.TRUE.,
   LWRITE_COORD=.TRUE.,
   NB_READ_FORC=1,
   NOUTPUT_NETCDF=4,
   XTSTEP_OUTPUT=21600.,
   XTSTEP_SURF=900.,
 /
 &NAM_ISBA
   CISBA='DIF',
   CPHOTO='NON',
   NGROUND_LAYER=20,
   NPATCH=1,
   XSOILGRID=0.01,0.03,0.06,0.1,0.2,0.3,0.45,0.6,0.8,1.,1.25,1.5,2.,2.5,3.,4.,5.,6.5,8.,10.,
   XUNIF_CLAY=0.3,
   XUNIF_RUNOFFB=0.5,
   XUNIF_SAND=0.6,
 /
 &NAM_ISBAN
   CCPSURF='DRY',
   CDIFSFCOND='DEF ',
   CSCOND='PL98',
   CSNOWRES='M98',
   CSOILFRZ='LWT',
   XCVHEATF=0.4,
 /
 &NAM_ISBA_SNOWN
   CSNOWCOMP='S14',
   CSNOWCOND='C11',
   CSNOWDRIFT='NONE',
   CSNOWFALL='V12',
   CSNOWHOLD='B92',
   CSNOWMETAMO='S-B',
   CSNOWRAD='B92',
   LSNOWDRIFT_SUBLIM=.FALSE.,
   LSNOWSYTRON=.TRUE.,
   LSNOW_ABS_ZENITH=.FALSE.,
 /
 &NAM_LONLATVAL
   NPOINTS=1,
   XDX=0.5,
   XDY=0.5,
   XX=5.77,
   XY=45.3,
 /
 &NAM_PGD_GRID
   CGRID='LONLATVAL',
 /
 &NAM_PGD_SCHEMES
   CNATURE='ISBA  ',
   CSEA='SEAFLX',
   CTOWN='TEB   ',
   CWATER='WATFLX',
 /
 &NAM_PREP_ISBA
   CFILE_TG='init_TG.nc',
   CTYPE_TG='NETCDF',
   NINFILES=20,
   XUNIF_HUG_SOIL=0.1,0.1,0.1,0.1,0.1,0.1,0.1,0.1,0.1,0.1,0.1,0.1,0.1,0.1,0.1,0.1,0.1,0.1,0.1,0.1,
 /
 &NAM_PREP_ISBA_SNOW
   CSNOW='CRO',
   LSNOW_FRAC_TOT=.TRUE.,
   NSNOW_LAYER=50,
 /
 &NAM_PREP_SURF_ATM
   NDAY=1,
   NMONTH=8,
   NYEAR=1993,
   XTIME=21600.,
 /
 &NAM_SGH_ISBAN
   CRUNOFF='DT92',
 /
 &NAM_SURF_ATM
   LNOSOF=.TRUE.,
   LSLOPE=.TRUE.,
   LVERTSHIFT=.FALSE.,
 /
 &NAM_SURF_SNOW_CSTS
   XALBICE1=0.38,
   XALBICE2=0.23,
   XALBICE3=0.08,
   XRHOTHRESHOLD_ICE=850.,
   XVAGING_GLACIER=900.,
   XVAGING_NOGLACIER=60.,
   XZ0ICEZ0SNOW=10.,
 /
 &NAM_WRITE_DIAG_SURFN
   CSELECT = 'time','ZS','aspect','slope','massif_num','station',
  
   'TG1','WG1','WGI1','TG4','ASN_VEG','TALB_ISBA','TS_ISBA','WSN_T_ISBA','DSN_T_ISBA',
   'SD_1DY_ISBA','SD_3DY_ISBA','SD_5DY_ISBA','SD_7DY_ISBA','SWE_1DY_ISBA',
   'SWE_3DY_ISBA','SWE_5DY_ISBA','SWE_7DY_ISBA','RAMSOND_ISBA','WET_TH_ISBA',
   'REFRZTH_ISBA','NAT_LEV','AVA_TYP','ACC_LEV','DEP_HIG','DEP_MOD',

   'RN_ISBA','H_ISBA','LE_ISBA','GFLUX_ISBA','DRAIN_ISBA','RAINF_ISBA',
   'SNOWF_ISBA','RUNOFF_ISBA','EVAP_ISBA','SNOMLT_ISBA','SWD_ISBA','SWU_ISBA',
   'LWD_ISBA','LWU_ISBA',
  
   'SNOWDZ','SNOWDEND','SNOWSPHER','SNOWSIZE','SNOWSSA','SNOWTYPE','SNOWRAM',
   'SNOWSHEAR','SNOWTEMP','SNOWLIQ','SAG_VEG','WSN_VEG','RSN_VEG','HSN_VEG',
   LPROVAR_TO_DIAG=.TRUE.,
   LRESETCUMUL=.TRUE.,
   LSELECT=.FALSE.,
   LSNOWDIMNC=.TRUE.,
 /
 &NAM_WRITE_SURF_ATM
   LSPLIT_PATCH=.FALSE.,
 /
 &NAM_ZS
   LIMP_ZS=.TRUE.,
   YSLOPE='FORCING.nc',
   YSLOPEFILETYPE='NETCDF',
   YZS='FORCING.nc',
   YZSFILETYPE='NETCDF',
 /
