&NAM_SWITCHES_INT
    LMULTIINPUT = .FALSE.,
    LMULTIOUTPUT = .FALSE.
/
&NAM_FILENAMES_SINGLE_IN
    HFILEIN = "postproc_2021041006_2021041406_cor.nc" !"FORCING_2018080106_2019080106.nc" !"PRO_2020092706_2020092806_mb035_zeroslope_alps.nc" !"PRO_2020092706_2020092806_mb035_alps.nc" !,
/
&NAM_MULTIIN_SETTING
    NNUMBER_INPUT_FILES = 3
/
&NAM_FILENAMES_MULTI_IN
    HFILESIN =  "PRO_2020092706_2020092806_mb035_cor.nc", "PRO_2020092706_2020092806_mb035_alps.nc", "PRO_2020092706_2020092806_mb035_pyr.nc"
/
&NAM_MULTIOUT_SETTING
    NNUMBER_OUTPUT_GRIDS = 3
/
&NAM_FILENAMES_SINGLE_OUT
    HFILEOUT = "grid_postproc_2021041006_2021041406_cor.nc" !"pyr_grid_FORCING_2018080106_2019080106.nc" !"alpha_2020092706_2020092806_mb035.nc" !"test_ignore_nonzeroslopes_zeroslopes_alps.nc" !"test_ignore_nonzeroslopes_allslopes_alps.nc" !'test_v2_multi_in_single_out_alpha.nc'
    HGRIDIN = 'alpha_massifs.nc' !"PYRENNES.nc" ! "ALPS.nc" ! "CORSE.nc" !"CORSE_1D.nc" !'alpha_massifs_1d.nc' !
/
&NAM_FILENAMES_MULTI_OUT
    HFILESOUT = "dev_multiin_singleout_test_multi_in_multi_out_cor.nc", "dev_multiin_singleout_test_multi_in_multi_out_alps.nc", "dev_multiin_singleout_test_multi_in_multi_out_pyr.nc"
    HGRIDSIN = "CORSE.nc", "ALPS.nc",  "PYRENNES.nc"
/
&OTHER_STUFF
/