&NAM_SWITCHES_INT
    LMULTIINPUT = .TRUE.
/
&NAM_FILES_INT
/