&NAM_SWITCHES_INT
    LMULTIINPUT = .FALSE.,
    LMULTIOUTPUT = .FALSE.
/
&NAM_FILENAMES_SINGLE_IN
    HFILEIN = 'PRO_2020092706_2020092806_zeroslope_alps.nc',
    HGRIDIN = 'alpha4.nc'
/
&NAM_MULTIIN_SETTING
    NNUMBER_INPUT_GRIDS = 1
/
&NAM_FILENAMES_MULTI_IN
    HFILESIN = "PRO_2020092706_2020092806_zeroslope_alps.nc", "PRO_2020092706_2020092806_zeroslope_cor.nc", "PRO_2020092706_2020092806_zeroslope_pyr.nc"
    HGRIDSIN = "ALPS.nc", "CORSE.nc", "PYRENNES.nc"
/
&NAM_FILENAMES_SINGLE_OUT
    HFILEOUT = 'output_alp_alpha.nc'
/
&NAM_FILENAMES_MULTI_OUT
    HFILESOUT = "output_mulitin_zeroslope_input_alps.nc", "output_mulitin_zeroslope_input_cor.nc", "output_mulitin_zeroslope_input_pyr.nc"
/
&OTHER_STUFF
/