&NAM_ISBA              XUNIF_CLAY    = 0.30          ,
                       XUNIF_SAND    = 0.60          ,
                       XUNIF_RUNOFFB = 0.5           ,
                       CISBA         = 'DIF'         ,
                       CPHOTO        = 'NON'         ,
                       NPATCH        = 1             ,
                       NGROUND_LAYER = 20            ,
                       XSOILGRID= 0.01,0.03,0.06,0.10,0.20,0.30,0.45,0.60,0.80,1.00,1.25,1.50,2.00,2.50,3.00,4.00,5.00,6.50,8.00,10.0
/
&NAM_ISBAn             CSCOND       = 'PL98'	,
                       CSOILFRZ     = 'LWT'	,
                       CDIFSFCOND   = 'DEF '	,
                       CSNOWRES     = 'M98'	,
                       CCPSURF      = 'DRY'  ,
                       XCVHEATF     = 0.4                        
/
&NAM_SGH_ISBAn         CRUNOFF    = "DT92"                       
/
&NAM_DATA_ISBA         XUNIF_VEGTYPE(1)     = 0.,
                       XUNIF_VEGTYPE(2)     = 0.,
                       XUNIF_VEGTYPE(3)     = 0.,
                       XUNIF_VEGTYPE(4)     = 0.,
                       XUNIF_VEGTYPE(5)     = 0.,
                       XUNIF_VEGTYPE(6)     = 0.,
                       XUNIF_VEGTYPE(7)     = 0.,
                       XUNIF_VEGTYPE(8)     = 0.,
                       XUNIF_VEGTYPE(9)     = 0.,
                       XUNIF_VEGTYPE(10)    = 1.,
                       XUNIF_VEGTYPE(11)    = 0.,
                       XUNIF_VEGTYPE(12)    = 0.,
                       XUNIF_VEGTYPE(13)    = 0.,
                       XUNIF_VEGTYPE(14)     = 0.,
                       XUNIF_VEGTYPE(15)     = 0.,
                       XUNIF_VEGTYPE(16)     = 0.,
                       XUNIF_VEGTYPE(17)     = 0.,
                       XUNIF_VEGTYPE(18)     = 0.,
                       XUNIF_VEGTYPE(19)     = 0.,
                       NTIME = 12 ,
                       XUNIF_VEG(1,1)       = 1.0 ,
                       XUNIF_VEG(1,2)       = 1.0 ,
                       XUNIF_VEG(1,3)       = 1.0 ,
                       XUNIF_VEG(1,4)       = 1.0 ,
                       XUNIF_VEG(1,5)       = 1.0 ,
                       XUNIF_VEG(1,6)       = 1.0 ,
                       XUNIF_VEG(1,7)       = 1.0 ,
                       XUNIF_VEG(1,8)       = 1.0 ,
                       XUNIF_VEG(1,9)       = 1.0 ,
                       XUNIF_VEG(1,10)      = 1.0 ,
                       XUNIF_VEG(1,11)      = 1.0 ,
                       XUNIF_VEG(1,12)      = 1.0 ,
                       XUNIF_LAI(1,1)       = 1.,
                       XUNIF_LAI(1,2)       = 1.,
                       XUNIF_LAI(1,3)       = 1.,
                       XUNIF_LAI(1,4)       = 1.,
                       XUNIF_LAI(1,5)       = 1.,
                       XUNIF_LAI(1,6)       = 1.,
                       XUNIF_LAI(1,7)       = 1.,
                       XUNIF_LAI(1,8)       = 1.,
                       XUNIF_LAI(1,9)       = 1.,
                       XUNIF_LAI(1,10)      = 1.,
                       XUNIF_LAI(1,11)      = 1.,
                       XUNIF_LAI(1,12)      = 1.,
                       XUNIF_Z0(1,1)        = 0.005 ,
                       XUNIF_Z0(1,2)        = 0.005 ,
                       XUNIF_Z0(1,3)        = 0.005 ,
                       XUNIF_Z0(1,4)        = 0.005 ,
                       XUNIF_Z0(1,5)        = 0.005 ,
                       XUNIF_Z0(1,6)        = 0.005 ,
                       XUNIF_Z0(1,7)        = 0.005 ,
                       XUNIF_Z0(1,8)        = 0.005 ,
                       XUNIF_Z0(1,9)        = 0.005 ,
                       XUNIF_Z0(1,10)       = 0.005 ,
                       XUNIF_Z0(1,11)       = 0.005 ,
                       XUNIF_Z0(1,12)       = 0.005 ,
                       XUNIF_EMIS(1,1)      = 0.97,
                       XUNIF_EMIS(1,2)      = 0.97,
                       XUNIF_EMIS(1,3)      = 0.97,
                       XUNIF_EMIS(1,4)      = 0.97,
                       XUNIF_EMIS(1,5)      = 0.97,
                       XUNIF_EMIS(1,6)      = 0.97,
                       XUNIF_EMIS(1,7)      = 0.97,
                       XUNIF_EMIS(1,8)      = 0.97,
                       XUNIF_EMIS(1,9)      = 0.97,
                       XUNIF_EMIS(1,10)     = 0.97,
                       XUNIF_EMIS(1,11)     = 0.97,
                       XUNIF_EMIS(1,12)     = 0.97,
                       XUNIF_RSMIN(1)       =40.,
                       XUNIF_GAMMA(1)       = 0.04,
                       XUNIF_WRMAX_CF(1)    = 0.2,
                       XUNIF_RGL(1)         =  30.,
                       XUNIF_CV(1)          = 0.00002,
                       XUNIF_Z0_O_Z0H(1)    = 10.,
                       XUNIF_ALBNIR_VEG(1,1)  = 0.2,
                       XUNIF_ALBNIR_VEG(1,2)  = 0.2,
                       XUNIF_ALBNIR_VEG(1,3)  = 0.2,
                       XUNIF_ALBNIR_VEG(1,4)  = 0.2,
                       XUNIF_ALBNIR_VEG(1,5)  = 0.2,
                       XUNIF_ALBNIR_VEG(1,6)  = 0.2,
                       XUNIF_ALBNIR_VEG(1,7)  = 0.2,
                       XUNIF_ALBNIR_VEG(1,8)  = 0.2,
                       XUNIF_ALBNIR_VEG(1,9)  = 0.2,
                       XUNIF_ALBNIR_VEG(1,10)  = 0.2,
                       XUNIF_ALBNIR_VEG(1,11)  = 0.2,
                       XUNIF_ALBNIR_VEG(1,12)  = 0.2,
                       XUNIF_ALBVIS_VEG(1,1)  = 0.2,
                       XUNIF_ALBVIS_VEG(1,2)  = 0.2,
                       XUNIF_ALBVIS_VEG(1,3)  = 0.2,
                       XUNIF_ALBVIS_VEG(1,4)  = 0.2,
                       XUNIF_ALBVIS_VEG(1,5)  = 0.2,
                       XUNIF_ALBVIS_VEG(1,6)  = 0.2,
                       XUNIF_ALBVIS_VEG(1,7)  = 0.2,
                       XUNIF_ALBVIS_VEG(1,8)  = 0.2,
                       XUNIF_ALBVIS_VEG(1,9)  = 0.2,
                       XUNIF_ALBVIS_VEG(1,10)  = 0.2,
                       XUNIF_ALBVIS_VEG(1,11)  = 0.2,
                       XUNIF_ALBVIS_VEG(1,12)  = 0.2,
                       XUNIF_ALBUV_VEG(1,1)   = 0.2,
                       XUNIF_ALBUV_VEG(1,2)   = 0.2,
                       XUNIF_ALBUV_VEG(1,3)   = 0.2,
                       XUNIF_ALBUV_VEG(1,4)   = 0.2,
                       XUNIF_ALBUV_VEG(1,5)   = 0.2,
                       XUNIF_ALBUV_VEG(1,6)   = 0.2,
                       XUNIF_ALBUV_VEG(1,7)   = 0.2,
                       XUNIF_ALBUV_VEG(1,8)   = 0.2,
                       XUNIF_ALBUV_VEG(1,9)   = 0.2,
                       XUNIF_ALBUV_VEG(1,10)   = 0.2,
                       XUNIF_ALBUV_VEG(1,11)   = 0.2,
                       XUNIF_ALBUV_VEG(1,12)   = 0.2,
                       XUNIF_ALBNIR_SOIL(1,1) = 0.2,
                       XUNIF_ALBNIR_SOIL(1,2) = 0.2,
                       XUNIF_ALBNIR_SOIL(1,3) = 0.2,
                       XUNIF_ALBNIR_SOIL(1,4) = 0.2,
                       XUNIF_ALBNIR_SOIL(1,5) = 0.2,
                       XUNIF_ALBNIR_SOIL(1,6) = 0.2,
                       XUNIF_ALBNIR_SOIL(1,7) = 0.2,
                       XUNIF_ALBNIR_SOIL(1,8) = 0.2,
                       XUNIF_ALBNIR_SOIL(1,9) = 0.2,
                       XUNIF_ALBNIR_SOIL(1,10) = 0.2,
                       XUNIF_ALBNIR_SOIL(1,11) = 0.2,
                       XUNIF_ALBNIR_SOIL(1,12) = 0.2,
                       XUNIF_ALBVIS_SOIL(1,1) = 0.2,
                       XUNIF_ALBVIS_SOIL(1,2) = 0.2,
                       XUNIF_ALBVIS_SOIL(1,3) = 0.2,
                       XUNIF_ALBVIS_SOIL(1,4) = 0.2,
                       XUNIF_ALBVIS_SOIL(1,5) = 0.2,
                       XUNIF_ALBVIS_SOIL(1,6) = 0.2,
                       XUNIF_ALBVIS_SOIL(1,7) = 0.2,
                       XUNIF_ALBVIS_SOIL(1,8) = 0.2,
                       XUNIF_ALBVIS_SOIL(1,9) = 0.2,
                       XUNIF_ALBVIS_SOIL(1,10) = 0.2,
                       XUNIF_ALBVIS_SOIL(1,11) = 0.2,
                       XUNIF_ALBVIS_SOIL(1,12) = 0.2,
                       XUNIF_ALBUV_SOIL(1,1)  = 0.2,
                       XUNIF_ALBUV_SOIL(1,2)  = 0.2,
                       XUNIF_ALBUV_SOIL(1,3)  = 0.2,
                       XUNIF_ALBUV_SOIL(1,4)  = 0.2,
                       XUNIF_ALBUV_SOIL(1,5)  = 0.2,
                       XUNIF_ALBUV_SOIL(1,6)  = 0.2,
                       XUNIF_ALBUV_SOIL(1,7)  = 0.2,
                       XUNIF_ALBUV_SOIL(1,8)  = 0.2,
                       XUNIF_ALBUV_SOIL(1,9)  = 0.2,
                       XUNIF_ALBUV_SOIL(1,10)  = 0.2,
                       XUNIF_ALBUV_SOIL(1,11)  = 0.2,
                       XUNIF_ALBUV_SOIL(1,12)  = 0.2,
                       XUNIF_GMES(1)        = 0.001,
                       XUNIF_RE25(1)        = 0.00000018,
                       XUNIF_BSLAI(1)       = 0.08,
                       XUNIF_LAIMIN(1)      = 0.3,
                       XUNIF_SEFOLD(1)      = 12960000.,
                       XUNIF_GC(1)          = 0.00025,
                       XUNIF_DMAX(1)        = 0.05,
                       XUNIF_F2I(1)         = 0.3,
                       XUNIF_H_TREE(1)      = 20.,
                       XUNIF_CE_NITRO(1)    = 5.56,
                       XUNIF_CF_NITRO(1)    = 6.73,
                       XUNIF_CNA_NITRO(1)   = 1.3,
                       XUNIF_ROOT_DEPTH  = 1.0,
                       XUNIF_GROUND_DEPTH = 10.0
                       XUNIF_ROOT_LIN = 0.05
                       XUNIF_ROOT_EXTINCTION = 0.943
/
&NAM_FRAC              LECOCLIMAP = .FALSE.,
                       XUNIF_SEA    = 0.,
                       XUNIF_WATER  = 0.,
                       XUNIF_TOWN   = 0.,
                       XUNIF_NATURE = 1.
/
&NAM_PGD_GRID          CGRID = 'LONLATVAL' 
/
&NAM_LONLATVAL
    XX = 5.77,
    XY = 45.3,
    XDX = 0.5,
    XDY = 0.5,
    NPOINTS = 1
/
&NAM_PGD_SCHEMES       CNATURE = 'ISBA  '    , 
                       CSEA    = 'SEAFLX'    , 
                       CTOWN   = 'TEB   '    , 
                       CWATER  = 'WATFLX' 
/
&NAM_ZS
    LIMP_ZS = .TRUE.  ,
    YZSFILETYPE = 'NETCDF' ,
    YZS = 'FORCING.nc'
    YSLOPE = 'FORCING.nc'
    YSLOPEFILETYPE='NETCDF'
/
&NAM_PREP_SURF_ATM 
                   NYEAR  = 1993,
                   NMONTH = 08,
                   NDAY   = 01,
                   XTIME  = 21600. 
/
&NAM_PREP_ISBA     XHUG_SURF = 0.10,
                   XHUG_ROOT = 0.10,
                   XHUG_DEEP = 0.10,
                   CFILE_TG="init_TG.nc",
                   CTYPE_TG="NETCDF"
/
&NAM_PREP_ISBA_SNOW    CSNOW = 'CRO',
                       NSNOW_LAYER = 50, 
                       LSNOW_FRAC_TOT = .TRUE.
/
&NAM_IO_OFFLINE        LPRINT  = .TRUE.,                       
                       CFORCING_FILETYPE =    'NETCDF'   ,
                       CSURF_FILETYPE =       'NC '   ,
                       CTIMESERIES_FILETYPE = 'NETCDF'   ,
                       LRESTART = .TRUE.                     ,
                       XTSTEP_OUTPUT = 21600.            ,
                       XTSTEP_SURF = 900.                ,
                       LWRITE_COORD = .TRUE.
/
&NAM_DIAG_SURFn        LSURF_BUDGET = .TRUE. ,
                       LRAD_BUDGET  = .TRUE. , 
                       N2M          = 0      ,
                       LCOEF        = .FALSE. ,
                       LSURF_VARS   = .FALSE. , 
                       LSURF_BUDGETC = .TRUE.
/
&NAM_DIAG_SURF_ATMn    LFRAC        = .FALSE. 
/
&NAM_DIAG_ISBAn        LPGD              = .TRUE. , 
                       LSURF_EVAP_BUDGET = .TRUE. , 
                       LSURF_MISC_BUDGET = .TRUE. ,
                       LPROSNOW          = .TRUE. ,
                       LVOLUMETRIC_SNOWLIQ = .TRUE.,
                       LWATER_BUDGET = .TRUE.
/
&NAM_DIAG_TEBn         LSURF_MISC_BUDGET = .FALSE. 
/
&NAM_SURF_ATM          LVERTSHIFT = .FALSE.,
                       LNOSOF = .TRUE.,
                       LSLOPE = .TRUE.
/
&NAM_ISBA_SNOWn
  CSNOWDRIFT='VI13'
  LSNOWDRIFT_SUBLIM= .FALSE.
  LSNOW_ABS_ZENITH= .FALSE.
  CSNOWMETAMO='C13'
  CSNOWRAD='B92'
  LSNOWCOMPACT_BOOL = T
  LSNOWTILLER = T
  LSNOWMAK_BOOL = T
  LSNOWMAK_PROP = T
  LSELF_PROD = T
/
&NAM_SURF_SNOW_CSTS
  XALBICE1=0.38
  XALBICE2=0.23
  XALBICE3=0.08
  XRHOTHRESHOLD_ICE=850.
  XZ0ICEZ0SNOW=10.
  XVAGING_GLACIER=900.
  XVAGING_NOGLACIER=60.
  XPSR_SNOWMAK = 0.002
  XRHO_SNOWMAK = 600
  XPTA_SEUIL = 268.15
  XPROD_SCHEME = 0,0,0,0,0
  XSM_END = 4,30,4,30
  XFREQ_GRO = 1
/
&NAM_WRITE_SURF_ATM
  LSPLIT_PATCH = .FALSE.
/
&NAM_WRITE_DIAG_SURFn
  LPROVAR_TO_DIAG = .TRUE.
  LSNOWDIMNC = .TRUE.
  LRESETCUMUL = .TRUE.
  LSELECT= .TRUE.
  CSELECT='time','ZS','aspect','slope','massif_num','station','TG1','WG1','WGI1','TG4','ASN_VEG',
'WSN_VEG','RSN_VEG','SNOWHEAT','SNOWAGE','SNOWTEMP',
'RN_ISBA','H_ISBA','LE_ISBA','GFLUX_ISBA','DRAIN_ISBA','RAINF_ISBA','RUNOFF_ISBA','TALB_ISBA','TS_ISBA',
'WSN_T_ISBA','DSN_T_ISBA','EVAP_ISBA','SNOMLT_ISBA',
'SNOWDZ','SNOWDEND','SNOWSPHER','SNOWSIZE','SNOWSSA','SNOWTYPE','SNOWRAM','SNOWSHEAR','SNOWTEMP','SNOWLIQ',
'SD_1DY_ISBA','SD_3DY_ISBA','SD_5DY_ISBA','SD_7DY_ISBA','SWE_1DY_ISBA','SWE_3DY_ISBA','SWE_5DY_ISBA','SWE_7DY_ISBA',
'RAMSOND_ISBA','WET_TH_ISBA','REFRZTH_ISBA',
'RN_ISBA','LE_ISBA','H_ISBA','GFLUX_ISBA',
'SWD_ISBA','SWU_ISBA','LWD_ISBA','LWU_ISBA'
/
